%chk=apoCaM-CA-Ng.loop2.water3.frame1375.chk
%nprocshared=20
%mem=10GB
%nosave
#b3lyp/svp scf=(tight,noincore,xqc) Test 
#IOP(5/87=12) Density=Current Pop=(MK,readradii) iop(6/33=2) iop(6/42=6)

apoCaM-CA-Ng.loop2.water3.frame1375 

   -2  1 
C         18.50587       47.04442       51.62961
C         19.80598       47.34273       52.31860
O         20.64626       47.99452       51.71576
H         17.66584       47.48434       52.20622
H         18.49823       47.48556       50.60951
H         18.37040       45.94692       51.53745
N         20.08389       46.91859       53.58302
C         19.19183       46.13304       54.43055
C         19.80737       44.78333       54.78546
O         19.23255       44.08161       55.60685
C         18.85518       46.95211       55.69590
C         20.06455       47.29255       56.52510
O         20.37357       48.45869       56.70622
O         20.80419       46.31585       57.08216
H         21.00040       47.17545       53.98020
H         18.22540       45.92305       53.92778
H         18.13750       46.38855       56.33083
H         18.35169       47.89118       55.37583
N         20.95065       44.33535       54.18630
C         21.60624       43.08465       54.53529
C         23.08310       43.36673       54.75626
O         23.91778       42.79887       54.06280
C         21.38217       42.07609       53.40032
H         21.37977       44.88422       53.42709
H         21.17194       42.64697       55.46149
H         21.80972       42.45830       52.44807
H         21.85699       41.10253       53.64765
H         20.29390       41.90718       53.25481
N         23.48203       44.28102       55.68692
C         24.87375       44.71994       55.78248
C         25.22329       45.29828       57.14665
O         24.36283       45.40322       58.00935
C         25.17214       45.71467       54.63547
C         24.26778       46.92057       54.65959
O         23.54095       47.15633       53.70824
O         24.26414       47.75410       55.71589
H         22.76192       44.75423       56.25263
H         25.53725       43.83327       55.67598
H         25.03505       45.19085       53.66447
H         26.22664       46.05506       54.67932
N         26.51665       45.64400       57.42197
C         26.94991       46.13592       58.72066
C         26.41102       47.51062       59.04189
O         25.77190       48.12823       58.20277
H         27.23913       45.49700       56.70121
H         28.05937       46.20088       58.74314
H         26.63190       45.40949       59.49928
N         26.63595       48.04513       60.27615
C         26.12201       49.34475       60.70172
C         27.23672       50.24850       61.20037
O         28.37234       49.81165       61.33160
C         25.11296       49.12672       61.84823
C         23.88633       48.33400       61.39071
N         23.04166       47.99878       62.53064
O         23.15344       49.10580       60.48572
H         27.16050       47.48208       60.96449
H         25.61986       49.86675       59.85774
H         24.75767       50.09588       62.26026
H         25.62647       48.57569       62.66776
H         23.57652       47.36314       63.16531
H         22.22036       47.45661       62.18142
N         26.94906       51.54115       61.53289
C         27.89433       52.45553       62.15400
C         29.11597       52.76855       61.30989
O         29.22450       52.26353       60.20190
H         25.98697       51.88552       61.39196
H         28.22310       52.00687       63.11529
H         27.36725       53.41063       62.36827
N         30.11676       53.58578       61.76268
C         30.11383       54.26721       63.06041
C         30.22582       55.79162       62.93005
O         30.09757       56.46213       63.94486
C         31.27128       53.73079       63.93730
C         31.17802       52.21838       64.16329
O         32.50472       54.02358       63.32783
H         30.94448       53.70159       61.15739
H         29.16626       54.07202       63.59970
H         31.19998       54.22190       64.93864
H         33.08090       54.45655       64.01066
H         30.21904       51.95656       64.65704
H         31.25253       51.66890       63.20039
H         32.01288       51.88541       64.81609
N         30.51634       56.40574       61.74253
C         30.71602       57.84822       61.57784
C         29.81490       58.33602       60.44218
O         29.81239       57.69202       59.40227
C         32.22165       58.12072       61.27797
C         33.06521       57.69392       62.51318
C         32.46717       59.60530       60.93746
C         34.57293       57.88369       62.35805
H         30.67397       55.83050       60.90541
H         30.47582       58.38021       62.51767
H         32.52618       57.51863       60.39285
H         32.89590       56.61721       62.71446
H         32.73411       58.26641       63.40847
H         33.52249       59.77459       60.64598
H         31.85807       59.91901       60.06539
H         32.22606       60.25670       61.80213
H         34.94634       57.31253       61.48346
H         34.83543       58.95537       62.25006
H         35.08056       57.51191       63.27373
N         29.01423       59.44414       60.51574
C         29.00631       60.43078       61.59158
C         28.90890       61.84776       61.01753
O         27.93920       62.15883       60.33885
C         27.90199       60.12188       62.62201
C         26.51566       60.04837       62.04720
O         26.23443       59.19584       61.22004
O         25.56203       60.89381       62.48052
H         28.40643       59.63750       59.70363
H         29.95134       60.38685       62.16077
H         27.93578       60.90182       63.41468
H         28.12347       59.14503       63.10523
N         29.88672       62.76438       61.28470
C         29.88252       64.16009       60.84463
C         31.17298       64.47922       60.09878
O         32.22807       64.14695       60.62736
C         29.74031       65.06821       62.09265
C         29.82643       66.54963       61.76948
C         31.07095       67.14651       61.48402
C         28.67287       67.35297       61.75722
C         31.15707       68.50426       61.17396
C         28.76374       68.71474       61.44244
C         30.00398       69.28816       61.14842
H         30.67485       62.47136       61.88303
H         29.00005       64.38269       60.21637
H         30.50374       64.83020       62.86504
H         28.74587       64.83777       62.53579
H         31.98267       66.56654       61.50588
H         27.70268       66.92594       61.97605
H         32.12046       68.94645       60.95320
H         27.87209       69.32729       61.42374
H         30.07399       70.34029       60.90440
N         31.21302       65.21855       58.94065
C         30.07217       65.76257       58.20749
C         29.18723       64.67469       57.66399
O         27.97794       64.71721       57.84740
C         30.71349       66.52256       57.03203
C         32.03124       66.95855       57.62379
C         32.45545       65.69548       58.36665
H         29.52104       66.47722       58.85861
H         30.97659       65.82487       56.20448
H         30.07858       67.32929       56.60600
H         32.77424       67.33462       56.88882
H         31.82116       67.75804       58.36950
H         32.84400       64.92199       57.66744
H         33.22359       65.96010       59.12503
N         29.75997       63.63689       56.99946
C         29.00821       62.53470       56.43581
C         28.28180       63.04455       55.19513
O         28.97524       63.40750       54.25430
C         29.97805       61.38498       56.06904
C         30.69948       60.84052       57.32120
C         31.72424       59.80482       56.96635
O         31.39368       58.77485       56.40212
O         33.01841       60.00526       57.28418
H         30.78822       63.62600       56.91587
H         28.34017       62.13007       57.21527
H         30.73604       61.76153       55.34526
H         29.41430       60.55616       55.58841
H         29.95562       60.39965       58.01482
H         31.22230       61.65797       57.86109
N         26.92573       63.15936       55.07019
C         25.92743       62.86330       56.07872
H         25.22665       62.09897       55.68566
H         26.33161       62.50017       57.03487
H         25.35470       63.79004       56.29582
H         26.56038       63.52516       54.17668
Ca        22.93802       47.85499       58.59778
O         21.01903       50.45835       58.94870
H         20.10586       50.07667       58.93563
H         21.12534       50.81379       59.86654
O         20.66207       46.81583       60.15732
H         20.90638       45.88706       59.91579
H         19.79488       46.97390       59.70751
O         23.74705       50.47467       57.08929
H         24.53918       50.73530       56.55553
H         23.31912       51.33253       57.33607

Ca 1.0



