%chk=apoCaM-CA-Ng.loop2.water4.frame1039.chk
%nprocshared=20
%mem=10GB
%nosave
#b3lyp/svp scf=(tight,noincore,xqc) Test 
#IOP(5/87=12) Density=Current Pop=(MK,readradii) iop(6/33=2) iop(6/42=6)

apoCaM-CA-Ng.loop2.water4.frame1039 

   -2  1 
C          5.01544       40.42699       77.61935
C          4.96950       41.76307       76.90852
O          6.03821       42.30597       76.67196
H          4.03202       39.96081       77.80751
H          5.60812       39.70747       77.01816
H          5.51020       40.55747       78.60553
N          3.81367       42.39998       76.54449
C          2.47658       41.87088       76.78929
C          1.41996       42.96274       76.95114
O          1.69958       44.13763       76.75839
C          2.11615       40.79659       75.73083
C          2.11041       41.28498       74.30454
O          2.84563       40.77238       73.47616
O          1.22871       42.21854       73.91647
H          3.90425       43.32622       76.09891
H          2.46889       41.40693       77.79651
H          1.11369       40.37392       75.94864
H          2.84550       39.96367       75.80238
N          0.18048       42.60494       77.40538
C         -0.93489       43.48982       77.75082
C         -1.63887       44.14780       76.57231
O         -2.73244       44.65556       76.77963
C         -0.54085       44.51598       78.82075
H          0.02425       41.60370       77.59833
H         -1.70890       42.82933       78.20403
H          0.19971       45.24340       78.42986
H         -1.43552       45.08250       79.15690
H         -0.10690       43.99800       79.70234
N         -1.10968       44.17575       75.31990
C         -1.81211       44.69071       74.14925
C         -1.81962       43.61492       73.07040
O         -1.41462       42.49581       73.35577
C         -1.18100       46.03419       73.71976
C          0.25312       45.95960       73.28914
O          1.20233       46.60690       73.99114
O          0.55781       45.36767       72.26965
H         -0.16416       43.81614       75.16356
H         -2.87076       44.93060       74.38896
H         -1.25244       46.72229       74.59061
H         -1.77099       46.48964       72.89682
N         -2.26913       43.86671       71.80993
C         -2.24755       42.86416       70.75581
C         -1.43106       43.34564       69.55092
O         -0.07754       43.62133       69.83474
H         -2.63892       44.80021       71.57983
H         -3.29447       42.68652       70.42913
H         -1.83587       41.88990       71.09757
N         -1.57661       42.41064       68.42047
C         -0.54501       42.54313       67.36686
C         -0.37754       43.96440       66.85448
O         -1.13018       44.85767       67.22047
C         -0.86294       41.58666       66.19512
C         -0.77802       40.14327       66.61363
N          0.40614       39.61461       67.00250
O         -1.77583       39.43952       66.57864
H         -2.52748       42.56480       68.00923
H          0.43561       42.25999       67.80670
H         -0.14427       41.72026       65.35985
H         -1.87813       41.82096       65.80382
H          1.26096       40.19039       67.00998
H          0.47584       38.62492       67.28008
N          0.65921       44.24163       66.01663
C          0.97756       45.57988       65.56231
C          1.47899       46.45253       66.70052
O          1.57139       45.97521       67.82198
H          1.27325       43.47472       65.70298
H          0.08928       46.02750       65.06872
H          1.79751       45.49405       64.82163
N          1.84048       47.75380       66.51969
C          1.71205       48.47548       65.25886
C          2.55861       47.85757       64.15914
O          1.98822       47.54335       63.12272
C          2.02834       49.98305       65.41713
C          1.06462       50.66957       66.39807
O          3.35356       50.17261       65.83895
H          2.18812       48.26299       67.34700
H          0.64560       48.43004       64.93845
H          1.87599       50.44856       64.41342
H          3.62741       51.07343       65.52287
H          0.01196       50.51922       66.07527
H          1.17810       50.27549       67.42885
H          1.26782       51.76046       66.42402
N          3.90201       47.62738       64.30609
C          4.71753       47.04433       63.23315
C          5.22495       45.65031       63.61477
O          5.17281       45.31706       64.79092
C          5.87705       48.00939       62.82295
C          6.94901       48.15557       63.93517
C          5.29218       49.37026       62.40105
C          8.18177       48.94177       63.48037
H          4.35149       47.85810       65.20441
H          4.06275       46.90035       62.35087
H          6.39684       47.58476       61.94196
H          7.31489       47.14504       64.21679
H          6.51993       48.63477       64.83995
H          4.80359       49.87436       63.26226
H          6.07538       50.04195       61.99819
H          4.53781       49.22802       61.59846
H          8.63235       48.45965       62.58634
H          7.93090       49.99471       63.24381
H          8.93867       48.94842       64.29248
N          5.67574       44.73132       62.69984
C          5.67768       44.91816       61.24996
C          7.05349       44.63796       60.64428
O          7.91595       44.07679       61.30414
C          4.58146       44.00917       60.65602
C          4.32333       44.25062       59.19626
O          3.91591       45.46425       58.77582
O          4.45241       43.34410       58.38982
H          5.95324       43.80159       63.05344
H          5.40772       45.95244       60.99199
H          3.62659       44.21797       61.18751
H          4.84604       42.94353       60.83471
N          7.32663       45.07049       59.37993
C          8.59572       44.86768       58.67816
C          8.65318       45.83242       57.50123
O          7.71637       45.83746       56.71413
C          8.74788       43.39076       58.22379
C         10.01517       43.14464       57.41715
C         10.12449       43.60520       56.08832
C         11.09926       42.44443       57.97740
C         11.29082       43.39048       55.35044
C         12.26814       42.23412       57.23411
C         12.36427       42.70935       55.92373
H          6.59644       45.62611       58.91165
H          9.43286       45.09043       59.36693
H          7.87425       43.05838       57.62167
H          8.76724       42.76660       59.14319
H          9.30705       44.12549       55.61069
H         11.04839       42.07188       58.99215
H         11.36041       43.75247       54.33211
H         13.10271       41.70362       57.67368
H         13.26804       42.54687       55.34991
N          9.71738       46.66997       57.28062
C         10.97611       46.67790       58.01805
C         10.87607       47.33755       59.38691
O          9.79550       47.73338       59.80256
C         11.92803       47.40389       57.06029
C         11.01014       48.40845       56.40231
C          9.76511       47.57023       56.14606
H         11.37461       45.64843       58.15863
H         12.85614       47.80822       57.51395
H         12.22679       46.68499       56.26194
H         10.75551       49.17318       57.16199
H         11.41488       48.91915       55.50373
H          8.87599       48.23442       56.08280
H          9.85805       46.96080       55.22018
N         11.99308       47.40864       60.16975
C         11.99235       47.84481       61.56484
C         13.32990       47.49705       62.23858
O         13.98003       48.38331       62.77379
C         11.61684       49.35068       61.72693
C         12.54349       50.37181       61.02962
C         12.38207       50.37895       59.54219
O         13.33131       50.13906       58.81361
O         11.19206       50.70798       59.00664
H         12.87444       47.03957       59.77887
H         11.22423       47.25598       62.11374
H         11.63459       49.56957       62.81739
H         10.57471       49.53307       61.39215
H         13.60497       50.20501       61.29861
H         12.27356       51.38977       61.38306
N         13.83017       46.22614       62.29243
C         13.19625       45.03711       61.75774
H         12.20453       45.22624       61.30927
H         13.85727       44.58958       60.98550
H         13.05681       44.30071       62.57574
H         14.74113       46.08495       62.75700
Ca         0.79480       42.70319       71.74430
O          3.96679       45.91879       71.57768
H          3.77936       46.38363       70.72402
H          3.12033       45.98433       72.08501
O          1.73356       40.69084       69.88996
H          2.26282       40.16013       69.24420
H          0.80998       40.34250       69.80786
O          3.61674       43.68264       69.27072
H          4.58581       43.83957       69.39521
H          3.28496       44.53363       68.89417
O          4.61237       42.84949       72.07119
H          5.38721       43.33833       71.69621
H          5.00679       42.03207       72.46575

Ca 1.0



