%chk=apoCaM-CA-Ng.loop1.water5.frame1026.chk
%nprocshared=20
%mem=10GB
%nosave
#b3lyp/svp scf=(tight,noincore,xqc) Test 
#IOP(5/87=12) Density=Current Pop=(MK,readradii) iop(6/33=2) iop(6/42=6)

apoCaM-CA-Ng.loop1.water5.frame1026 

   0  1 
C         31.89846       35.83720       75.08908
C         31.67030       36.86458       76.15778
O         31.04828       37.88215       75.88589
H         32.98922       35.68655       74.94486
H         31.43390       34.87569       75.39114
H         31.45431       36.16342       74.12416
N         32.16339       36.66038       77.41241
C         31.99052       37.61693       78.50220
C         32.55138       38.97296       78.11452
O         33.71304       39.06800       77.74137
C         32.60616       37.11261       79.82535
C         34.10269       36.94287       79.79638
O         34.62625       36.13938       79.04198
O         34.87341       37.66837       80.62862
H         32.67244       35.78212       77.58880
H         30.89841       37.71591       78.69405
H         32.13600       36.14398       80.10070
H         32.35023       37.84814       80.62032
N         31.73927       40.06308       78.13894
C         32.12895       41.37291       77.63699
C         33.37680       41.93332       78.33634
O         34.35964       42.07401       77.62244
C         30.90755       42.31873       77.63222
C         29.85677       41.88499       76.59056
C         28.55895       42.68630       76.73937
C         27.50466       42.22836       75.72262
N         26.22681       42.90085       75.95578
H         30.77422       39.93495       78.48079
H         32.41623       41.25119       76.56594
H         31.21726       43.35948       77.38931
H         30.43158       42.28128       78.63099
H         29.60483       40.81268       76.72750
H         30.27570       42.01764       75.56826
H         28.75955       43.76994       76.59910
H         28.16142       42.51877       77.76481
H         27.35033       41.12994       75.81303
H         27.86278       42.44878       74.69229
H         26.34016       43.93733       75.87845
H         25.53426       42.57712       75.24240
H         25.86514       42.65566       76.90672
N         33.50705       42.29207       79.65344
C         32.48487       42.29738       80.69382
C         33.10588       42.03745       82.07395
O         34.31624       41.87286       82.18160
C         31.77980       43.68063       80.69616
C         32.72334       44.83103       80.91590
O         33.36028       44.97734       82.09140
O         32.89915       45.65289       80.03038
H         34.42106       42.70090       79.91065
H         31.73792       41.49824       80.49942
H         30.97520       43.71790       81.45884
H         31.29557       43.85099       79.72507
N         32.32272       42.04664       83.18796
C         32.82541       41.94364       84.55182
C         32.50769       43.20847       85.31997
O         32.03153       44.16531       84.71972
H         31.30480       42.17556       83.07774
H         33.92391       41.77633       84.59130
H         32.32463       41.08145       85.04111
N         32.71580       43.27918       86.66797
C         32.37956       44.46715       87.45720
C         30.92155       44.85080       87.20384
O         30.05300       44.03535       87.48062
C         32.66262       44.26564       88.96689
C         31.84854       43.17699       89.62288
O         31.01092       43.48230       90.63224
O         31.95668       42.01479       89.26671
H         33.10578       42.44915       87.13951
H         33.05697       45.27879       87.13358
H         32.45148       45.22554       89.48819
H         33.74040       44.03542       89.11026
N         30.54986       46.01876       86.59931
C         31.46066       47.10353       86.25367
C         30.78382       48.09966       85.33895
O         29.69831       48.56631       85.65582
H         29.54823       46.13099       86.37381
H         32.34393       46.71281       85.70903
H         31.79992       47.59583       87.18999
N         31.38206       48.46083       84.16600
C         30.74032       49.28043       83.14530
C         30.75656       48.53892       81.81954
O         31.62431       47.71113       81.58171
C         31.41684       50.66287       83.01570
C         31.18131       51.50154       84.27660
O         30.87476       51.35385       81.91766
H         32.33544       48.11769       83.97023
H         29.67308       49.45476       83.40967
H         32.50895       50.50335       82.85889
H         31.55891       52.00904       81.61936
H         31.59539       50.99965       85.17460
H         31.66577       52.49456       84.16724
H         30.09020       51.66343       84.42484
N         29.76877       48.78496       80.91738
C         29.59126       48.13141       79.62196
C         30.75342       48.45974       78.63400
O         31.67383       49.33151       79.22869
C         29.38584       46.58144       79.72423
C         28.83230       46.03798       81.07173
C         28.51757       46.08288       78.55733
C         27.50697       46.62626       81.54553
H         29.05859       49.48949       81.17124
H         28.64896       48.57357       79.22394
H         30.38000       46.09896       79.63121
H         29.57973       46.20005       81.87383
H         28.72114       44.93426       80.98511
H         27.50214       46.53101       78.60218
H         28.96728       46.34652       77.58424
H         28.41473       44.98017       78.60015
H         26.70103       46.44948       80.80842
H         27.22826       46.13613       82.50307
H         27.59954       47.71122       81.74283
N         30.28102       49.03008       77.36121
C         31.37150       49.22860       76.37771
C         31.43501       50.67214       75.92122
O         32.24918       50.95195       75.05383
C         31.33205       48.23213       75.18458
C         30.21877       48.49729       74.15800
O         31.30827       46.90559       75.65069
H         29.47046       48.51131       76.95824
H         32.35577       49.04079       76.84706
H         32.28355       48.35143       74.61787
H         30.36520       46.65673       75.82441
H         29.21325       48.42785       74.61688
H         30.34328       49.50559       73.70841
H         30.29638       47.75336       73.33629
N         30.65551       51.65282       76.48173
C         30.78412       53.06671       76.12636
C         32.21151       53.47878       76.46849
O         32.53504       53.59078       77.64295
C         29.71429       53.90530       76.87891
C         29.70123       55.37326       76.45825
O         28.43635       53.37384       76.62138
H         29.97814       51.39516       77.21245
H         30.59665       53.15491       75.03251
H         29.92988       53.87017       77.97527
H         28.14878       52.87283       77.43025
H         29.45589       55.45933       75.37805
H         28.91912       55.91212       77.03738
H         30.68026       55.85464       76.65543
N         33.15860       53.45678       75.48368
C         34.60190       53.35617       75.70718
C         34.95941       52.07859       76.47772
O         34.13445       51.55095       77.20939
C         35.23102       54.61191       76.34262
C         35.07402       55.84863       75.44178
C         35.88605       57.03561       75.98791
C         35.86682       58.26378       75.05995
N         34.54132       58.87608       74.96510
H         32.84362       53.34451       74.50760
H         35.06650       53.23088       74.70312
H         36.31881       54.41379       76.46594
H         34.80361       54.81124       77.34891
H         33.99769       56.10722       75.35710
H         35.46592       55.60454       74.42987
H         36.94734       56.71345       76.07544
H         35.52662       57.32093       77.00021
H         36.22663       57.97826       74.04597
H         36.57550       59.01794       75.46906
H         34.60631       59.72787       74.36175
H         33.85604       58.21873       74.53124
H         34.21233       59.16345       75.91534
N         36.18680       51.50006       76.33157
C         36.56853       50.29018       77.06240
C         35.65805       49.08007       76.70895
O         35.72237       48.13597       77.73834
C         38.05619       49.94165       76.85975
C         38.98110       51.04273       77.39692
C         40.41855       50.67967       77.17034
O         41.13180       51.39663       76.48680
O         40.93014       49.56282       77.72227
H         36.86429       51.94774       75.69724
H         36.41810       50.50231       78.14607
H         38.25643       49.77722       75.77927
H         38.28284       48.99938       77.40537
H         38.80865       51.17729       78.48666
H         38.76838       52.00744       76.89003
N         35.94150       48.40477       75.43152
C         35.73368       49.24692       74.25147
H         36.71746       49.60350       73.88194
H         35.27563       48.64639       73.43435
H         35.06089       50.10494       74.44976
H         35.27073       47.60259       75.37034
Ca        33.74664       48.48217       78.79363
O         37.14586       48.28288       80.29057
H         37.35166       49.21487       80.55316
H         37.90313       48.01278       79.71310
O         34.15814       50.60995       80.73695
H         34.93226       51.01724       81.19865
H         34.25686       50.89320       79.79437
O         36.48696       45.53696       81.47525
H         35.83767       44.79132       81.50354
H         37.34282       45.12552       81.75366
O         35.51481       45.22967       78.51811
H         36.34137       45.46188       78.02539
H         35.01741       44.63740       77.90114
O         34.89367       48.20591       82.44663
H         35.65098       48.81224       82.64546
H         34.94715       47.50620       83.14473

Ca 1.0



