%chk=apoCaM-CA-Ng.loop1.water3.frame967.chk
%nprocshared=20
%mem=10GB
%nosave
#b3lyp/svp scf=(tight,noincore,xqc) Test 
#IOP(5/87=12) Density=Current Pop=(MK,readradii) iop(6/33=2) iop(6/42=6)

apoCaM-CA-Ng.loop1.water3.frame967 

   0  1 
C         63.67882       36.78432       23.35730
C         62.68858       35.65666       23.39995
O         61.55348       35.89310       23.78799
H         64.66543       36.44782       22.97547
H         63.29680       37.58668       22.69188
H         63.81706       37.19696       24.37899
N         63.05388       34.39496       23.02930
C         62.14085       33.25912       23.04369
C         62.49595       32.27968       24.15214
O         63.58263       31.72696       24.16369
C         62.02018       32.61764       21.64937
C         63.22302       32.02350       20.93676
O         64.50229       32.00608       21.38597
O         63.01251       31.52507       19.84234
H         64.02271       34.24152       22.73104
H         61.11469       33.62296       23.26808
H         61.60780       33.39768       20.97081
H         61.25591       31.81337       21.72903
N         61.60051       32.04998       25.15625
C         61.88999       31.24246       26.33580
C         62.19919       29.79390       25.98464
O         61.37770       29.13937       25.35822
C         60.68697       31.26659       27.30388
C         61.03371       30.59303       28.64711
C         59.83264       30.44825       29.59083
C         58.80117       29.43794       29.05758
N         57.75784       29.18059       30.04712
H         60.68391       32.52152       25.11012
H         62.75169       31.71013       26.86303
H         59.83632       30.76187       26.80177
H         60.38788       32.31711       27.51554
H         61.81485       31.20793       29.14639
H         61.45569       29.57797       28.48846
H         59.35942       31.43633       29.77873
H         60.21676       30.06380       30.55873
H         59.31396       28.47728       28.82472
H         58.33115       29.81737       28.12613
H         57.25563       30.06684       30.28156
H         57.07630       28.49372       29.65056
H         58.18110       28.77093       30.91177
N         63.33900       29.21401       26.45912
C         63.66967       27.79082       26.29655
C         64.89360       27.40965       27.14875
O         65.56016       28.30654       27.64562
C         63.88829       27.46847       24.79534
C         64.96175       28.31983       24.16936
O         64.68686       29.06521       23.24245
O         66.23188       28.25305       24.61109
H         63.95615       29.81795       27.01999
H         62.81255       27.20373       26.68578
H         62.93973       27.63127       24.24386
H         64.15133       26.41044       24.64032
N         65.29881       26.12804       27.40179
C         64.65179       24.87783       27.02678
C         63.39644       24.58257       27.81593
O         62.88474       25.44347       28.51428
H         66.17017       26.02239       27.94710
H         65.35696       24.06597       27.31315
H         64.49562       24.77676       25.94025
N         62.88275       23.31898       27.78361
C         61.77607       22.86605       28.62294
C         62.18898       22.93316       30.08954
O         63.19553       22.34079       30.45520
C         61.38952       21.41938       28.23640
C         60.16618       20.92546       28.96524
O         60.17114       20.79745       30.30590
O         59.16542       20.61646       28.33777
H         63.33471       22.63397       27.15715
H         60.88795       23.50761       28.42627
H         62.23651       20.72594       28.43148
H         61.17576       21.39860       27.14439
N         61.44159       23.63059       30.98952
C         61.77469       23.74671       32.40451
C         62.90859       24.71781       32.69948
O         63.12836       24.99864       33.86914
H         60.56321       24.06634       30.66938
H         61.95992       22.74540       32.84973
H         60.88496       24.17671       32.91541
N         63.61820       25.32472       31.70619
C         64.53730       26.43990       31.90722
C         65.93802       26.07688       31.41787
O         66.13341       24.98074       30.90767
C         63.96452       27.65270       31.10957
C         62.51242       27.96321       31.49175
O         64.73016       28.80787       31.32515
H         63.45078       25.05148       30.73749
H         64.60041       26.70697       32.98482
H         63.98397       27.38292       30.02662
H         64.62562       29.38048       30.52007
H         62.43939       28.22349       32.56829
H         62.15470       28.82022       30.88815
H         61.84421       27.10252       31.27674
N         66.96197       26.97741       31.50949
C         68.27733       26.74969       30.91509
C         69.11262       25.68706       31.62551
O         70.15680       25.35184       31.08567
C         69.07639       28.07739       30.71958
C         69.36404       28.82015       32.05077
C         68.34218       28.97960       29.70447
C         70.37523       29.95865       31.88798
H         66.76758       27.89058       31.93439
H         68.10825       26.35451       29.88716
H         70.05126       27.80152       30.25923
H         69.79687       28.10746       32.78383
H         68.42881       29.23541       32.48198
H         68.93412       29.88075       29.45254
H         68.18352       28.42810       28.75271
H         67.35265       29.30138       30.09079
H         70.01150       30.74166       31.19323
H         70.55414       30.43946       32.87240
H         71.34031       29.55670       31.51208
N         68.71967       25.07625       32.78507
C         69.44515       23.93469       33.35200
C         69.91957       24.19964       34.77549
O         69.50511       25.17106       35.39010
C         68.51379       22.69549       33.23390
C         69.09857       21.37426       33.73508
O         67.30424       22.93497       33.91182
H         67.84563       25.36982       33.24359
H         70.36250       23.73225       32.75902
H         68.32775       22.56018       32.13965
H         66.56991       22.87638       33.24515
H         68.39143       20.54894       33.50953
H         70.06424       21.15772       33.23203
H         69.23405       21.39321       34.83600
N         70.82553       23.34616       35.34541
C         71.29643       23.43303       36.71973
C         72.80915       23.61480       36.75029
O         73.25121       24.61307       37.30447
C         70.82222       22.17532       37.49473
C         71.21239       22.21377       38.97520
O         71.33032       21.00548       36.90558
H         71.19389       22.57145       34.77789
H         70.83432       24.30978       37.22774
H         69.70719       22.16951       37.43344
H         70.67715       20.27924       37.08317
H         70.80282       21.31838       39.49032
H         72.31637       22.21250       39.09401
H         70.79206       23.11937       39.46124
N         73.66453       22.69856       36.19685
C         75.11968       22.83203       36.25822
C         75.75632       22.87168       34.88013
O         75.16435       22.40206       33.91722
C         75.75184       21.67019       37.07054
C         75.53676       20.27718       36.43411
C         76.31400       19.18297       37.17828
C         76.11449       17.81420       36.50640
N         76.91674       16.78197       37.16281
H         73.27495       21.87108       35.72464
H         75.38745       23.77973       36.77422
H         75.33938       21.66937       38.10296
H         76.84619       21.85747       37.14371
H         75.90460       20.28629       35.38596
H         74.45495       20.02522       36.42987
H         75.97743       19.13020       38.23637
H         77.39667       19.43694       37.15826
H         76.41577       17.87476       35.43638
H         75.03901       17.53161       36.55025
H         77.93344       17.01577       37.08383
H         76.64984       16.70049       38.17041
H         76.74721       15.86422       36.69069
N         77.02465       23.35554       34.74996
C         77.83258       23.23194       33.54110
C         77.13276       23.75391       32.28737
O         76.97317       22.95604       31.37421
C         79.23488       23.85685       33.76200
C         80.20286       23.57080       32.60579
C         81.57400       24.10302       32.91655
O         82.24957       23.64541       33.98899
O         82.08800       24.94166       32.19405
H         77.46322       23.77886       35.58386
H         78.00522       22.14155       33.38966
H         79.66334       23.40827       34.68613
H         79.17300       24.95281       33.91922
H         79.82045       24.03880       31.67280
H         80.28337       22.47418       32.44728
N         76.67607       25.02763       32.10962
C         76.72137       26.09812       33.08068
H         77.31349       26.94040       32.66568
H         75.68647       26.45123       33.27191
H         77.15302       25.79646       34.04848
H         76.23765       25.25625       31.20333
Ca        65.84162       32.68122       23.10233
O         66.28476       31.13489       25.94545
H         66.47079       32.01092       26.36694
H         66.63917       30.47197       26.58912
O         67.20025       30.25130       20.92997
H         67.47001       30.69939       20.08913
H         67.79538       29.46239       20.99290
O         68.67273       30.69069       23.80444
H         69.49729       31.16770       23.53407
H         68.87561       29.73462       23.64541

Ca 1.0



