%chk=apoCaM-CA-Ng.loop4.water5.frame586.chk
%nprocshared=20
%mem=10GB
%nosave
#b3lyp/svp scf=(tight,noincore,xqc) Test 
#IOP(5/87=12) Density=Current Pop=(MK,readradii) iop(6/33=2) iop(6/42=6)

apoCaM-CA-Ng.loop4.water5.frame586 

   -3  1 
C         56.97281      118.45513       73.02362
C         56.44575      118.89648       71.69484
O         56.72151      118.24148       70.70872
H         57.61464      119.25354       73.45047
H         56.12678      118.24683       73.70951
H         57.58216      117.53146       72.91269
N         55.68098      120.01852       71.59001
C         55.16431      120.56048       70.33139
C         54.10955      119.69179       69.66096
O         53.64365      120.08536       68.59873
C         56.30082      120.83742       69.32797
C         57.43158      121.58818       69.94766
O         57.25800      122.69737       70.42507
O         58.66083      121.04555       69.92491
H         55.48853      120.55484       72.44962
H         54.67714      121.53387       70.56455
H         55.90705      121.42293       68.46803
H         56.70009      119.88600       68.91722
N         53.66853      118.51469       70.19707
C         52.66819      117.68602       69.52414
C         51.36287      118.46785       69.34000
O         51.15411      119.42667       70.07102
C         52.42272      116.33636       70.27585
C         51.86340      116.56586       71.70616
C         53.71048      115.48813       70.28059
C         51.45162      115.27610       72.41451
H         54.05734      118.19654       71.09052
H         53.08869      117.46422       68.51777
H         51.66150      115.75773       69.71292
H         50.95085      117.19447       71.63896
H         52.60045      117.09700       72.34317
H         54.05271      115.32535       69.23841
H         54.52750      115.97815       70.84982
H         53.53413      114.48533       70.71740
H         50.68857      114.73673       71.81428
H         52.32200      114.61370       72.59235
H         51.01211      115.52815       73.40252
N         50.45697      118.20417       68.35110
C         50.58541      117.14965       67.35241
C         51.04478      117.69529       66.01448
O         51.73226      116.96522       65.31707
C         49.30179      116.29458       67.24938
C         48.05754      117.01206       66.77779
O         46.90376      116.32490       66.68337
O         48.07000      118.19408       66.47501
H         49.65250      118.84391       68.27512
H         51.37758      116.43970       67.65122
H         49.09101      115.86480       68.25245
H         49.48879      115.45228       66.54797
N         50.80631      118.98158       65.62016
C         51.33683      119.51340       64.37821
C         50.69002      118.87149       63.17531
O         49.51405      119.10450       62.93524
H         50.27934      119.62308       66.22810
H         52.43840      119.36136       64.37434
H         51.15487      120.60776       64.31705
N         51.40875      118.03362       62.38099
C         50.88843      117.41018       61.16945
C         50.54744      115.94293       61.37700
O         50.12837      115.31241       60.41633
C         51.86778      117.66296       59.98714
C         53.33320      117.41304       60.27532
O         53.78956      116.19315       60.59566
O         54.12825      118.33667       60.20088
H         52.36938      117.79533       62.67196
H         49.91517      117.86025       60.87467
H         51.77772      118.73533       59.71222
H         51.55776      117.06863       59.09998
N         50.63277      115.33305       62.59766
C         50.30018      113.93251       62.80853
C         51.26257      112.99327       62.11037
O         51.04425      111.79297       62.16836
H         50.91871      115.87095       63.41845
H         49.26202      113.75005       62.45480
H         50.33678      113.70175       63.89624
N         52.35791      113.46873       61.44578
C         53.32944      112.66960       60.71680
C         54.17481      111.80462       61.63533
O         54.98861      111.04956       61.11778
C         52.65559      111.87553       59.57329
C         51.87315      112.80699       58.62859
C         51.30897      112.05807       57.45044
N         49.97379      112.01333       57.22989
O         52.06858      111.49616       56.67555
H         52.53596      114.47010       61.44005
H         54.04966      113.36472       60.22799
H         51.97271      111.09768       59.97396
H         53.45264      111.36398       58.99074
H         52.54146      113.60865       58.24573
H         51.04760      113.28625       59.19249
H         49.31342      112.48347       57.86620
H         49.59653      111.50637       56.41549
N         54.09425      111.89410       62.99899
C         54.90035      111.08160       63.90186
C         55.84472      111.90824       64.76756
O         56.67191      111.30069       65.42846
C         53.98899      110.19813       64.80087
C         53.07650      111.03073       65.72551
C         53.13906      109.24717       63.94852
H         53.44164      112.56502       63.42428
H         55.55568      110.40504       63.30981
H         54.64312      109.57227       65.44725
H         52.35602      111.64667       65.14811
H         52.49091      110.35878       66.38732
H         53.67748      111.70207       66.37432
H         52.44888      109.81288       63.28868
H         53.79462      108.61124       63.31712
H         52.53441      108.58434       64.60294
N         55.76231      113.27235       64.86033
C         56.63133      114.05228       65.73956
C         57.33026      115.15684       64.94124
O         57.15396      115.21555       63.73501
C         55.77741      114.58176       66.91226
C         56.64495      115.03387       68.05578
N         56.65397      116.32110       68.45638
O         57.38384      114.22892       68.60485
H         55.03063      113.78347       64.35093
H         57.41767      113.39846       66.17328
H         55.15221      113.75630       67.31749
H         55.09685      115.38350       66.55203
H         56.05912      117.03057       68.00429
H         57.30933      116.60118       69.19544
N         58.14516      116.06867       65.55684
C         58.89858      117.09372       64.84513
C         60.36176      116.98462       65.25790
O         60.65564      116.27187       66.20712
C         58.34870      118.48807       65.22553
C         58.86554      119.56474       64.30478
C         59.78800      120.52533       64.75051
C         58.41846      119.60604       62.97316
C         60.27154      121.49751       63.86756
C         58.88871      120.58738       62.09874
C         59.82168      121.53107       62.53801
O         60.27807      122.46063       61.67476
H         58.26858      116.04047       66.56946
H         58.79630      116.93202       63.75146
H         58.61092      118.69512       66.28772
H         57.23846      118.50334       65.15681
H         60.14859      120.50931       65.77060
H         57.69721      118.88111       62.61511
H         60.99664      122.22171       64.21640
H         58.52990      120.60999       61.07711
H         60.93378      123.12427       61.93104
N         61.34297      117.65356       64.58914
C         62.73339      117.58950       65.01442
C         63.32719      118.98921       65.02801
O         63.77924      119.42108       63.97631
C         63.49582      116.63564       64.06884
C         64.93179      116.35558       64.54568
C         65.66246      115.37877       63.66051
O         66.92079      115.01873       63.97549
O         65.13504      114.90247       62.66657
H         61.10906      118.17233       63.73068
H         62.81444      117.13503       66.01832
H         63.50146      117.04418       63.03372
H         62.95136      115.66494       64.04989
H         64.89194      115.92599       65.57045
H         65.51217      117.30121       64.57919
N         63.35768      119.81123       66.12074
C         62.80342      119.55334       67.45301
C         63.51381      118.40416       68.13958
O         64.73594      118.41218       68.21094
C         62.98628      120.79852       68.36337
C         62.26685      122.06902       67.87019
C         62.68851      123.24570       68.71733
O         63.38333      124.12383       68.23277
O         62.30710      123.34516       70.00488
H         63.80553      120.72712       65.96550
H         61.71270      119.34714       67.37837
H         64.07659      121.01545       68.42855
H         62.61882      120.56708       69.38927
H         61.16233      121.93842       67.88536
H         62.56078      122.28428       66.82473
N         62.79898      117.40951       68.73315
C         63.43797      116.33758       69.46511
H         64.05580      116.75749       70.28894
H         62.66893      115.67167       69.91111
H         64.08202      115.74248       68.78485
H         61.76843      117.43161       68.70037
Ca        60.40085      122.30578       70.51276
O         61.41220      124.94083       72.48924
H         62.32973      124.56904       72.47449
H         61.49482      125.82253       72.04668
O         58.84684      123.65800       73.98015
H         57.87640      123.81584       74.09718
H         59.25063      123.94592       74.83731
O         61.72888      122.14898       73.94651
H         61.84000      122.79070       74.69254
H         62.21623      121.33919       74.24106
O         60.65898      119.55447       72.02523
H         60.43023      118.69501       71.59016
H         61.53988      119.39322       72.44762
O         58.56241      125.31157       71.23733
H         57.78449      125.78309       71.62821
H         58.30084      125.13660       70.29862

Ca 1.0



