%chk=apoCaM-CA-Ng.loop1.water4.frame700.chk
%nprocshared=20
%mem=10GB
%nosave
#b3lyp/svp scf=(tight,noincore,xqc) Test 
#IOP(5/87=12) Density=Current Pop=(MK,readradii) iop(6/33=2) iop(6/42=6)

apoCaM-CA-Ng.loop1.water4.frame700 

   0  1 
C         65.10212      117.36582        9.15749
C         66.27284      118.30116        9.13078
O         66.13702      119.41572        8.64619
H         64.20513      117.84263        8.70768
H         65.34578      116.44214        8.59413
H         64.86906      117.10082       10.21129
N         67.45613      117.91522        9.68269
C         68.61959      118.78905        9.78608
C         69.88108      118.18351        9.17622
O         69.96923      116.98060        8.98231
C         68.83117      119.24470       11.25714
C         68.18961      118.35782       12.31438
O         68.51252      117.06187       12.50054
O         67.30594      118.82983       13.01252
H         67.51073      116.97772       10.10792
H         68.44788      119.71379        9.19023
H         68.31294      120.22557       11.35685
H         69.90366      119.44550       11.46849
N         70.88017      119.02379        8.77241
C         72.13591      118.59784        8.15606
C         73.11742      118.11758        9.20451
O         73.41047      118.86167       10.13127
C         72.80230      119.78713        7.41011
C         72.06328      120.20889        6.12023
C         72.15777      119.18859        4.96119
C         73.58662      119.04795        4.39829
N         73.63140      118.07050        3.31070
H         70.71182      120.03806        8.86480
H         71.95531      117.79266        7.41650
H         73.85187      119.54242        7.14937
H         72.85177      120.65522        8.10410
H         72.49347      121.16749        5.75639
H         70.99590      120.39357        6.36526
H         71.50902      119.54800        4.13343
H         71.77050      118.19910        5.27549
H         74.29363      118.72456        5.18578
H         73.92844      120.03630        4.01759
H         74.60124      118.03302        2.92324
H         73.37777      117.12235        3.67260
H         72.97615      118.34522        2.54417
N         73.75959      116.92323        9.04742
C         74.88103      116.51613        9.89825
C         75.68157      115.35886        9.30126
O         75.12998      114.59146        8.52531
C         74.50640      116.22356       11.37932
C         73.03834      116.17683       11.65286
O         72.55340      116.97537       12.43923
O         72.22957      115.30325       11.03013
H         73.52145      116.35427        8.22145
H         75.56610      117.37792        9.89091
H         74.93814      117.03073       12.01219
H         74.96329      115.27090       11.72708
N         76.99280      115.13011        9.62856
C         77.76850      115.95137       10.54840
C         78.39065      117.17332        9.89098
O         77.71234      117.91041        9.19153
H         77.44993      114.28850        9.24424
H         78.57807      115.33062       10.98818
H         77.14797      116.25326       11.41190
N         79.68719      117.49792       10.16103
C         80.32360      118.71391        9.66369
C         80.54762      118.63371        8.17013
O         81.26663      117.74594        7.72916
C         81.67769      118.92874       10.37323
C         82.36752      120.18232        9.90511
O         81.77246      121.38105       10.05560
O         83.46900      120.11704        9.38286
H         80.21657      116.89415       10.80882
H         79.67694      119.58452        9.91827
H         82.33673      118.05068       10.19032
H         81.50778      119.01035       11.46837
N         80.00148      119.55972        7.32856
C         80.29959      119.57694        5.90661
C         79.84914      118.33266        5.17607
O         80.23341      118.17630        4.02729
H         79.40421      120.30818        7.71201
H         81.40154      119.67134        5.79487
H         79.83096      120.46077        5.42150
N         79.01938      117.41834        5.75649
C         78.61262      116.18697        5.09632
C         78.85863      114.98187        5.98812
O         79.20724      115.11987        7.15115
C         77.11855      116.27081        4.68246
C         76.17795      116.56829        5.85413
O         76.95679      117.27132        3.71320
H         78.63211      117.60528        6.69013
H         79.20781      116.02624        4.17172
H         76.78951      115.29460        4.25548
H         77.20687      116.86667        2.84087
H         75.12450      116.54035        5.50783
H         76.30212      115.80720        6.64442
H         76.37331      117.57435        6.28223
N         78.63143      113.74422        5.47206
C         78.65242      112.51915        6.25748
C         80.05750      112.23029        6.75588
O         80.24379      112.12007        7.95938
C         78.06833      111.32599        5.42650
C         76.67841      111.63879        4.78695
C         77.97611      110.05074        6.28356
C         75.61115      112.14284        5.76234
H         78.37803      113.69401        4.47887
H         77.98124      112.65605        7.13466
H         78.75249      111.09968        4.57942
H         76.30257      110.72959        4.27039
H         76.77885      112.40604        3.99373
H         77.58690      109.20908        5.67087
H         78.97712      109.75405        6.65923
H         77.30359      110.19882        7.15340
H         75.92285      113.10250        6.22494
H         74.67089      112.33708        5.20448
H         75.40333      111.39730        6.55441
N         81.08107      112.05504        5.87305
C         82.45181      111.71201        6.25088
C         83.20540      111.22439        5.02149
O         83.32741      111.95929        4.05143
C         83.22480      112.87148        6.95161
C         83.29069      114.18405        6.14476
O         82.72582      113.10226        8.24696
H         80.85139      112.10767        4.86812
H         82.41660      110.85865        6.96405
H         84.27541      112.52959        7.08891
H         82.02207      113.79961        8.20334
H         83.78852      114.04532        5.16638
H         82.27113      114.59194        5.97854
H         83.88460      114.93273        6.71122
N         83.70472      109.95657        4.99213
C         84.41009      109.38773        3.84930
C         84.59548      107.89219        4.08667
O         84.04741      107.10506        3.32797
C         85.74334      110.15096        3.56883
C         86.48734      109.60796        2.34872
O         86.60278      110.11114        4.67953
H         83.54333      109.35435        5.81484
H         83.75960      109.49798        2.95142
H         85.51384      111.21175        3.31674
H         86.44987      110.94040        5.20429
H         85.84379      109.67271        1.44592
H         87.40060      110.21691        2.17035
H         86.79468      108.55346        2.50808
N         85.33347      107.43361        5.13700
C         85.50487      106.02255        5.46153
C         85.21649      105.75852        6.92864
O         85.73180      106.46469        7.78502
C         86.91739      105.52859        5.09677
C         88.08067      106.42772        5.53713
C         89.40979      105.75351        5.17373
C         90.59499      106.71046        5.32717
N         91.84820      106.03403        4.99248
H         85.81138      108.11638        5.74130
H         84.82561      105.38121        4.85729
H         86.97397      105.45713        3.98805
H         87.04187      104.49901        5.50365
H         88.05994      106.63116        6.62870
H         87.99236      107.39114        4.98873
H         89.38223      105.42024        4.11315
H         89.54801      104.85940        5.82220
H         90.64769      107.09779        6.36800
H         90.44964      107.57129        4.63581
H         92.63368      106.72195        5.03906
H         92.02930      105.26236        5.67487
H         91.80179      105.64123        4.02363
N         84.49001      104.66009        7.28754
C         84.33628      104.23846        8.67329
C         83.43540      105.19523        9.45301
O         83.93029      105.76868       10.41274
C         83.90904      102.75413        8.74355
C         83.93215      102.20387       10.17643
C         83.52335      100.75863       10.20072
O         84.16311       99.92468        9.57913
O         82.44901      100.37502       10.91612
H         84.13665      104.03979        6.54261
H         85.35107      104.25127        9.13579
H         84.63439      102.16303        8.14040
H         82.91862      102.58921        8.29189
H         83.23743      102.78763       10.81658
H         84.95912      102.29334       10.59421
N         82.13247      105.47053        9.14074
C         81.39002      104.90198        8.03561
H         80.37733      105.35698        7.99594
H         81.89767      105.10959        7.07245
H         81.23003      103.81950        8.17895
H         81.63114      106.15616        9.72742
Ca        70.11882      115.83905       11.53312
O         70.87255      113.00958       13.04479
H         70.97400      112.24149       12.42832
H         70.56024      112.60726       13.89399
O         67.44092      114.10802       12.41803
H         66.55570      114.13791       11.97579
H         67.35399      114.72966       13.18330
O         69.71543      115.36909       14.80258
H         68.92222      114.92456       15.19442
H         69.52569      116.33677       14.89024
O         68.18088      114.48882        9.32089
H         68.02741      114.87637        8.42264
H         68.47263      113.55933        9.14609

Ca 1.0



