%chk=apoCaM-CA-Ng.loop4.water3.frame369.chk
%nprocshared=20
%mem=10GB
%nosave
#b3lyp/svp scf=(tight,noincore,xqc) Test 
#IOP(5/87=12) Density=Current Pop=(MK,readradii) iop(6/33=2) iop(6/42=6)

apoCaM-CA-Ng.loop4.water3.frame369 

   -3  1 
C         65.11391      108.23819       34.13935
C         66.26103      109.18047       34.33363
O         66.54736      109.92707       33.42179
H         64.66654      108.37601       33.12876
H         65.46505      107.19154       34.23364
H         64.33082      108.44647       34.89709
N         66.94966      109.22000       35.50951
C         68.03797      110.15336       35.80723
C         67.53870      111.58542       35.75959
O         67.96758      112.34845       34.91597
C         69.35425      109.83707       35.03524
C         69.37071      109.93197       33.53050
O         69.37886      111.11894       32.88919
O         69.51117      108.91253       32.87332
H         66.65654      108.57696       36.26012
H         68.33836      109.98887       36.86663
H         69.61291      108.78946       35.30669
H         70.17439      110.48011       35.42243
N         66.61228      111.98628       36.68446
C         65.99543      113.30895       36.85150
C         67.01410      114.36761       37.29113
O         66.94738      114.78785       38.43828
C         65.12192      113.72526       35.63238
C         64.28960      115.01468       35.90143
C         64.18894      112.57465       35.20684
C         63.20617      114.89899       36.98262
H         66.29980      111.26918       37.35837
H         65.29455      113.18503       37.70632
H         65.79526      113.93648       34.77359
H         63.78770      115.31347       34.95491
H         64.96089      115.84010       36.20054
H         64.77447      111.68786       34.89166
H         63.52694      112.26097       36.04061
H         63.56182      112.88479       34.34755
H         62.68060      115.87280       37.07612
H         62.44591      114.13788       36.71357
H         63.64086      114.65585       37.97264
N         68.00094      114.82257       36.46503
C         69.06591      115.71568       36.90566
C         68.57037      117.12920       37.19747
O         68.83685      117.59347       38.29698
C         70.25546      115.72339       35.91049
C         70.91928      114.37396       35.76660
O         71.89010      114.25918       35.03605
O         70.47232      113.29432       36.43917
H         68.04188      114.49436       35.49736
H         69.50553      115.30626       37.84546
H         71.02737      116.42888       36.28849
H         69.95293      116.05610       34.90365
N         67.87944      117.91556       36.31616
C         67.38654      117.47981       35.01716
C         66.63692      118.58301       34.28332
O         65.95639      119.34984       34.95026
H         67.66306      118.87649       36.62449
H         66.68276      116.64534       35.16251
H         68.20293      117.10065       34.41757
N         66.59057      118.70666       32.91714
C         67.23141      117.84702       31.92726
C         66.80634      116.39016       32.10573
O         67.61929      115.59361       32.55319
C         68.76499      118.08840       31.88136
C         69.41566      117.35910       30.73698
O         70.40897      116.48212       30.97246
O         69.06397      117.57520       29.58799
H         66.00189      119.46497       32.53674
H         66.89061      118.17190       30.92027
H         69.28183      117.80220       32.81166
H         68.94535      119.17449       31.73264
N         65.57799      115.91337       31.73708
C         64.54407      116.65612       31.02833
C         63.78253      117.64341       31.87332
O         64.02877      117.75388       33.06556
H         65.40740      114.90686       31.87145
H         63.78537      115.93154       30.65934
H         64.98340      117.15074       30.13719
N         62.77538      118.36590       31.30009
C         61.95523      119.32679       32.02733
C         60.55300      118.79124       32.29114
O         59.81212      119.45410       32.99867
C         62.03520      120.73105       31.36587
C         61.60923      120.88811       29.88791
C         60.11959      120.84454       29.64951
N         59.46750      121.91546       29.13768
O         59.49200      119.83307       29.89612
H         62.56019      118.19336       30.30567
H         62.37242      119.46422       33.04996
H         63.11221      121.00917       31.40188
H         61.48827      121.47734       31.98239
H         62.12155      120.14112       29.24797
H         61.97178      121.88660       29.55935
H         59.96813      122.78573       28.90711
H         58.45181      121.87262       28.96515
N         60.15958      117.55739       31.84067
C         58.92819      116.89632       32.28019
C         57.96491      116.60918       31.13784
O         56.93056      116.00418       31.41263
C         59.28175      115.59222       33.05812
C         60.17690      115.89847       34.27020
C         59.94478      114.51930       32.17616
H         60.78026      117.01833       31.22734
H         58.37312      117.54782       32.98975
H         58.33290      115.16063       33.44942
H         60.36306      114.97291       34.85551
H         61.15824      116.30967       33.94895
H         59.68201      116.63605       34.93722
H         60.11960      113.59813       32.77154
H         59.28734      114.24952       31.32333
H         60.92177      114.86179       31.78068
N         58.19006      117.01802       29.85643
C         57.25178      116.81105       28.75873
C         57.86006      115.98898       27.61910
O         57.10663      115.60854       26.74086
C         56.81626      118.17988       28.16538
C         56.04274      119.15040       29.03763
N         55.56429      118.83951       30.26448
O         55.82579      120.26642       28.58906
H         59.05821      117.52744       29.64466
H         56.35285      116.25530       29.10921
H         56.19363      118.01506       27.25930
H         57.74245      118.70220       27.84909
H         55.67467      117.90886       30.67259
H         55.03985      119.54149       30.80792
N         59.21005      115.75139       27.51224
C         59.79610      115.08338       26.35040
C         60.81573      114.04621       26.76337
O         61.70000      114.40330       27.52159
C         60.61682      116.06228       25.47619
C         59.90131      117.28225       24.97523
C         59.64938      118.35418       25.84390
C         59.55850      117.39739       23.61872
C         59.07020      119.52951       25.36163
C         58.96949      118.56940       23.13950
C         58.73150      119.64211       24.00529
O         58.19161      120.77794       23.52147
H         59.85761      116.12644       28.21250
H         59.01513      114.64638       25.69149
H         60.97414      115.47034       24.60149
H         61.52736      116.42246       26.00518
H         59.93230      118.29304       26.88733
H         59.75507      116.58470       22.92973
H         58.90039      120.35551       26.04047
H         58.71446      118.64864       22.09044
H         58.04063      121.55259       24.08135
N         60.88771      112.85069       26.09493
C         62.07507      111.98770       26.05475
C         62.26049      111.08283       27.26637
O         62.41118      109.88579       27.06485
C         63.34162      112.81600       25.70864
C         64.56185      111.97072       25.31421
C         64.30797      111.14827       24.08104
O         64.00879      111.69079       23.02858
O         64.41240      109.80711       24.13205
H         60.15147      112.64571       25.40409
H         61.92093      111.30468       25.18846
H         63.64001      113.45163       26.56615
H         63.10329      113.48684       24.85237
H         64.85108      111.31259       26.16030
H         65.41166      112.65569       25.10294
N         62.25048      111.55950       28.54406
C         62.43081      110.72669       29.73003
C         61.46115      109.56649       29.68227
O         61.89092      108.42414       29.76934
C         62.21906      111.53644       31.04272
C         63.08658      112.80426       31.16272
C         64.54721      112.52161       31.03874
O         65.15652      112.88117       30.04643
O         65.19927      111.88082       32.01579
H         62.06755      112.54603       28.68647
H         63.47009      110.32646       29.73520
H         62.42903      110.86777       31.90702
H         61.15855      111.86115       31.11136
H         62.89798      113.31304       32.13122
H         62.80267      113.53861       30.38635
N         60.13776      109.79032       29.45874
C         59.19411      108.70840       29.29756
H         58.18890      109.11763       29.06272
H         59.51139      108.05635       28.45430
H         59.13779      108.11088       30.23022
H         59.79688      110.75784       29.34897
Ca        67.45169      111.94635       32.08112
O         68.54214      110.92822       29.42935
H         67.67450      110.81081       28.96671
H         68.76265      110.02822       29.77821
O         67.91233      113.99144       29.68258
H         67.95996      114.97814       29.63454
H         67.28375      113.74229       28.96000
O         70.07299      113.84643       32.06307
H         70.13053      113.71792       33.04233
H         71.01373      113.84023       31.75507

Ca 1.0



