%chk=apoCaM-CA-Ng.loop2.water4.frame1126.chk
%nprocshared=20
%mem=10GB
%nosave
#b3lyp/svp scf=(tight,noincore,xqc) Test 
#IOP(5/87=12) Density=Current Pop=(MK,readradii) iop(6/33=2) iop(6/42=6)

apoCaM-CA-Ng.loop2.water4.frame1126 

   -2  1 
C         89.96802       58.44995       50.39838
C         91.00754       59.42011       50.86896
O         91.38810       59.34809       52.02876
H         89.06243       58.99668       50.06630
H         90.37924       57.84526       49.56357
H         89.68434       57.76238       51.22423
N         91.55721       60.36092       50.05427
C         91.21112       60.59626       48.65127
C         90.76440       62.05656       48.49549
O         90.50158       62.69250       49.50854
C         92.37926       60.13457       47.72751
C         93.68848       60.79858       48.01239
O         94.26966       61.59767       47.10625
O         94.20906       60.68267       49.10980
H         92.27814       60.97098       50.47043
H         90.35109       59.97340       48.32978
H         92.10154       60.30125       46.66656
H         92.52427       59.04060       47.85570
N         90.61879       62.65290       47.27121
C         90.06416       63.99682       47.06637
C         90.80724       65.13988       47.77969
O         90.31498       66.25804       47.70950
C         88.57607       63.99320       47.46037
H         90.86524       62.12250       46.42434
H         90.08594       64.22204       45.97625
H         88.43563       63.80383       48.54380
H         88.10344       64.96801       47.21135
H         88.03804       63.20626       46.88827
N         91.97190       64.95946       48.47585
C         92.61993       66.01475       49.26557
C         93.99683       66.40489       48.74910
O         94.43688       65.90312       47.72699
C         92.66154       65.61463       50.76278
C         93.39583       64.35990       51.19221
O         93.93895       63.46551       50.34309
O         93.37025       64.07128       52.37751
H         92.40058       64.03118       48.47501
H         92.01786       66.94848       49.22016
H         91.60716       65.49042       51.09466
H         93.07800       66.45481       51.35267
N         94.71186       67.37315       49.39302
C         96.03681       67.80006       48.98507
C         97.11490       66.83416       49.44308
O         97.09732       65.67964       49.04344
H         94.28207       67.87451       50.18326
H         96.23730       68.79163       49.44275
H         96.06800       67.94628       47.88328
N         98.12331       67.27722       50.25550
C         99.28318       66.47990       50.64895
C         99.46159       66.46086       52.16320
O         99.57710       67.52123       52.76349
C        100.55074       67.11155       50.03198
C        100.52813       67.10600       48.52484
N        100.54041       65.94046       47.83834
O        100.52021       68.16612       47.91715
H         98.11203       68.26366       50.55692
H         99.19880       65.43569       50.27577
H        101.45610       66.55801       50.36436
H        100.64058       68.16141       50.39236
H        100.56996       65.03758       48.33345
H        100.53702       65.94055       46.80755
N         99.57278       65.27808       52.83769
C         99.91335       65.18149       54.25706
C        101.32861       65.67806       54.53535
O        101.98186       66.13737       53.60833
H         99.45237       64.39560       52.31735
H         99.87729       64.10882       54.54298
H         99.17070       65.73008       54.86786
N        101.93045       65.58646       55.76064
C        101.33202       65.01190       56.96401
C        100.44522       66.02355       57.66739
O        100.89813       67.12126       57.96110
C        102.41523       64.51858       57.95669
C        103.28935       63.41583       57.34942
O        103.22623       65.58550       58.37998
H        102.91651       65.88810       55.81495
H        100.75503       64.10018       56.69524
H        101.87356       64.07902       58.83016
H        103.51576       65.37798       59.30707
H        103.86790       63.79654       56.48218
H        104.00451       63.04370       58.11304
H        102.65926       62.56362       57.01612
N         99.16900       65.69058       57.99783
C         98.23073       66.58001       58.67918
C         97.71566       65.94035       59.97445
O         97.36191       64.77112       59.94022
C         97.05144       66.94245       57.73278
C         96.40061       65.69678       57.06790
C         97.53221       67.96489       56.68593
C         95.14240       66.01070       56.26326
H         98.84022       64.74665       57.74692
H         98.72047       67.53539       58.93593
H         96.29499       67.45904       58.35255
H         96.10323       64.96853       57.84827
H         97.12553       65.20341       56.38564
H         98.31420       67.53240       56.03202
H         96.69368       68.33242       56.06359
H         97.95669       68.85720       57.19570
H         95.36189       66.68227       55.41004
H         94.73473       65.06502       55.84722
H         94.37529       66.47222       56.91897
N         97.57331       66.62437       61.15681
C         97.87879       68.04201       61.35672
C         97.00883       68.69207       62.43918
O         96.20465       68.02044       63.07403
C         99.39019       68.21379       61.64758
C         99.83270       67.47104       62.88094
O        100.67689       66.59330       62.79507
O         99.31781       67.77924       64.08669
H         97.17257       66.10010       61.95118
H         97.60918       68.60395       60.44122
H         99.64507       69.28655       61.76862
H         99.97479       67.83968       60.78167
N         97.13106       70.02971       62.68438
C         96.38626       70.77227       63.69694
C         95.68221       71.96747       63.04985
O         96.37214       72.75167       62.40699
C         97.38112       71.29561       64.75674
C         96.69339       72.11930       65.82428
C         96.95311       73.49730       65.92649
C         95.77982       71.52789       66.71456
C         96.30086       74.27045       66.89097
C         95.13123       72.30509       67.68042
C         95.38955       73.67561       67.76645
H         97.81968       70.56322       62.13119
H         95.66827       70.10967       64.21881
H         98.14518       71.91554       64.23719
H         97.91629       70.44807       65.23763
H         97.64975       73.97745       65.25087
H         95.56578       70.46796       66.65843
H         96.49959       75.33239       66.95629
H         94.42523       71.84612       68.36052
H         94.88395       74.27720       68.51088
N         94.35004       72.24148       63.21004
C         93.41252       71.44667       63.97826
C         93.10041       70.14759       63.26158
O         93.22297       69.10492       63.89135
C         92.23155       72.40660       64.20117
C         92.23188       73.28295       62.96901
C         93.72955       73.45335       62.69902
H         93.78634       71.21012       64.99514
H         91.26526       71.93436       64.47991
H         92.52331       73.08846       65.03457
H         91.75467       72.71739       62.15366
H         91.66594       74.23470       63.05055
H         93.89981       73.60595       61.61120
H         94.14236       74.31137       63.27351
N         92.69680       70.11597       61.95934
C         92.30127       68.89478       61.28946
C         90.79082       68.78065       61.41298
O         90.10134       69.65374       60.90369
C         92.69973       68.87808       59.79072
C         94.21050       68.91265       59.49372
C         94.88123       70.26271       59.56005
O         96.07441       70.34503       59.31887
O         94.18615       71.39158       59.78488
H         92.56320       70.98833       61.44703
H         92.80616       68.02925       61.76505
H         92.18797       69.67919       59.21291
H         92.33005       67.90338       59.40097
H         94.33747       68.57967       58.44196
H         94.72882       68.18699       60.15711
N         90.17213       67.76890       62.08464
C         90.87191       66.69218       62.75087
H         91.53212       67.09738       63.54577
H         90.14001       66.00733       63.22830
H         91.46985       66.11234       62.01680
H         89.14162       67.77014       62.13374
Ca        94.76561       63.41762       48.24683
O         97.38208       62.53022       50.37982
H         97.13139       62.82431       51.29131
H         98.37066       62.58586       50.36320
O         98.35429       63.62511       47.38268
H         98.80812       62.92100       46.85575
H         98.36590       64.42151       46.79441
O         97.19603       60.73765       47.86471
H         98.05950       60.30843       48.08874
H         96.88012       60.25606       47.05956
O         96.21489       62.67385       45.11801
H         95.31216       62.49520       44.75235
H         96.70374       61.82133       44.99743

Ca 1.0



