%chk=apoCaM-CA-Ng.loop2.water3.frame1424.chk
%nprocshared=20
%mem=10GB
%nosave
#b3lyp/svp scf=(tight,noincore,xqc) Test 
#IOP(5/87=12) Density=Current Pop=(MK,readradii) iop(6/33=2) iop(6/42=6)

apoCaM-CA-Ng.loop2.water3.frame1424 

   -2  1 
C        100.95501       98.96913       93.60612
C         99.93037       98.24775       92.77833
O         99.74877       97.05696       92.98579
H        101.74734       99.38097       92.94682
H        100.47037       99.78995       94.17482
H        101.42875       98.27358       94.33138
N         99.20066       98.86726       91.80906
C         99.30112      100.27799       91.45142
C         99.75634      100.45562       90.00875
O         99.75815      101.58737       89.54334
C         97.93811      100.95945       91.71794
C         96.80731      100.41528       90.88917
O         96.80033      100.56335       89.67855
O         95.77741       99.78916       91.48813
H         98.51718       98.29778       91.28812
H        100.03929      100.80902       92.08567
H         98.01200      102.05338       91.53412
H         97.69240      100.81657       92.79260
N        100.17176       99.39907       89.24316
C        100.51283       99.52458       87.83275
C         99.64091       98.56668       87.03287
O        100.14953       97.80159       86.22413
C        102.01158       99.25153       87.64550
H        100.23791       98.45678       89.65484
H        100.30673      100.55547       87.47201
H        102.30166       99.36679       86.57970
H        102.60433       99.97258       88.24866
H        102.26458       98.22239       87.98164
N         98.29971       98.51867       87.27776
C         97.38128       97.58505       86.63219
C         96.13789       98.27545       86.11328
O         95.91209       99.44171       86.40636
C         96.99646       96.45593       87.61132
C         96.68894       96.91294       89.02282
O         95.71154       97.78687       89.36055
O         97.39003       96.47833       89.92257
H         97.92285       99.12303       88.01918
H         97.86974       97.11543       85.74913
H         97.88248       95.78372       87.68444
H         96.16698       95.84195       87.20248
N         95.29055       97.59221       85.28692
C         94.07336       98.17574       84.75110
C         92.95082       98.12602       85.75595
O         93.09256       97.48111       86.78476
H         95.54491       96.63941       84.98383
H         93.73396       97.59472       83.86732
H         94.28023       99.21515       84.41753
N         91.77884       98.77259       85.50055
C         90.65105       98.77140       86.42372
C         89.44183       98.13350       85.76650
O         88.39426       98.75670       85.65148
C         90.37125      100.20550       86.91552
C         91.54047      100.77971       87.73179
N         91.18912      102.11347       88.21131
O         91.79210       99.95216       88.83295
H         91.68722       99.30349       84.62048
H         90.86337       98.14940       87.32016
H         89.47067      100.19553       87.56956
H         90.16283      100.86646       86.04486
H         91.02855      102.74516       87.39443
H         91.98985      102.50024       88.75677
N         89.52191       96.84370       85.34254
C         88.36704       96.12581       84.81857
C         88.71749       94.72596       84.33665
O         89.88987       94.38050       84.30664
H         90.42911       96.36509       85.44114
H         87.93801       96.68315       83.95722
H         87.61235       96.06661       85.63083
N         87.77643       93.83906       83.89943
C         86.32982       94.04348       83.92370
C         85.61989       92.95006       84.73987
O         84.40208       93.00484       84.83468
C         85.79096       94.06423       82.47233
C         86.37912       95.23163       81.66902
O         86.09524       92.84909       81.83508
H         88.11908       92.94279       83.51753
H         86.06791       95.01478       84.39050
H         84.68495       94.20437       82.51605
H         85.43943       92.73450       81.09881
H         87.48393       95.14850       81.59268
H         85.95665       95.23488       80.64194
H         86.12228       96.19784       82.15358
N         86.30255       91.92065       85.33412
C         85.67520       90.80313       86.04320
C         86.24545       90.73451       87.46607
O         87.46218       90.75720       87.58877
C         85.98206       89.47634       85.27704
C         85.43253       89.55087       83.82590
C         85.38277       88.25944       86.01665
C         85.80130       88.34307       82.96137
H         87.32693       91.87956       85.25566
H         84.57520       90.91521       86.05360
H         87.08684       89.34823       85.23407
H         85.85563       90.44116       83.31604
H         84.32547       89.65981       83.84602
H         84.27427       88.31896       86.03733
H         85.67699       87.30727       85.53419
H         85.75468       88.20059       87.05834
H         85.41004       88.49435       81.93330
H         86.90519       88.23421       82.90834
H         85.35493       87.40616       83.34976
N         85.48626       90.57970       88.59721
C         84.03795       90.40415       88.61607
C         83.55696       89.56490       89.80008
O         84.10622       89.64518       90.89054
C         83.29611       91.75263       88.53091
C         83.63298       92.68732       89.66173
O         84.14142       93.77132       89.42456
O         83.35457       92.35238       90.93576
H         85.99571       90.48126       89.48949
H         83.74864       89.80807       87.73037
H         82.19947       91.56848       88.52676
H         83.55334       92.25059       87.57324
N         82.48176       88.74580       89.62251
C         81.84249       87.93416       90.65173
C         81.89136       86.46805       90.23357
O         81.49320       86.19059       89.10800
C         80.35850       88.35813       90.74320
C         79.57582       87.50170       91.71320
C         78.70363       86.51246       91.22406
C         79.71694       87.66539       93.10142
C         77.99455       85.69476       92.10643
C         78.99296       86.85262       93.98239
C         78.13611       85.86613       93.48484
H         82.05673       88.71115       88.68213
H         82.30659       88.09417       91.64336
H         79.91728       88.24739       89.72760
H         80.25541       89.43010       91.01901
H         78.58791       86.35954       90.15819
H         80.38114       88.42203       93.49962
H         77.33705       84.92672       91.71961
H         79.09765       86.98377       95.05150
H         77.58210       85.23309       94.16598
N         82.26707       85.45034       91.07099
C         82.65600       85.57131       92.47085
C         83.93381       86.34385       92.67573
O         83.96017       87.24022       93.50827
C         82.82657       84.11646       92.93302
C         81.81372       83.40221       92.06364
C         82.09301       84.05557       90.71713
H         81.81595       86.01922       93.04044
H         83.82579       83.72545       92.63346
H         82.70792       83.97002       94.02837
H         81.89054       82.29476       92.06460
H         80.79107       83.69640       92.39839
H         83.04741       83.67289       90.29085
H         81.25151       83.86825       90.01519
N         85.03864       86.05364       91.93463
C         86.30858       86.73445       92.13115
C         86.89345       86.28280       93.46597
O         87.19018       85.10042       93.57306
C         87.28816       86.39903       90.98376
C         86.80011       86.97332       89.64122
C         87.72680       86.60128       88.52127
O         88.37049       87.56006       87.82846
O         87.88555       85.42907       88.21955
H         84.96377       85.32939       91.20315
H         86.13660       87.82126       92.07241
H         87.40804       85.29470       90.90878
H         88.28324       86.84493       91.20524
H         86.75010       88.08081       89.72350
H         85.78494       86.59854       89.39199
N         87.08698       87.09215       94.55098
C         86.75364       88.49929       94.66495
H         86.02678       88.62810       95.49461
H         87.67113       89.07389       94.90622
H         86.30072       88.94390       93.76716
H         87.49206       86.66236       95.39748
Ca        93.93097       99.08129       88.74396
O         94.73926      102.08214       87.72676
H         94.54587      102.54887       86.87535
H         94.95787      102.80763       88.36409
O         93.57381      101.60618       90.73813
H         93.51594      102.58973       90.64474
H         93.70830      101.45828       91.70721
O         93.27403       97.45789       91.20932
H         92.61291       97.15496       90.53703
H         92.79041       98.13454       91.74637

Ca 1.0



