%chk=apoCaM-CA-Ng.loop2.water3.frame1394.chk
%nprocshared=20
%mem=10GB
%nosave
#b3lyp/svp scf=(tight,noincore,xqc) Test 
#IOP(5/87=12) Density=Current Pop=(MK,readradii) iop(6/33=2) iop(6/42=6)

apoCaM-CA-Ng.loop2.water3.frame1394 

   -2  1 
C         31.74300       96.90063       40.81499
C         31.69532       95.59753       41.57808
O         31.68430       94.57455       40.90903
H         32.65231       96.90288       40.17634
H         30.85350       96.96841       40.15470
H         31.78055       97.82020       41.41798
N         31.68968       95.47881       42.94195
C         31.69473       96.56464       43.92122
C         30.51710       96.48848       44.89469
O         30.46291       97.32297       45.78852
C         33.05691       96.60974       44.65060
C         33.43821       95.39822       45.45853
O         34.62450       95.39337       46.09238
O         32.70774       94.42594       45.54888
H         31.70574       94.51749       43.31504
H         31.60278       97.54946       43.43684
H         33.06995       97.48996       45.32988
H         33.84790       96.76840       43.88525
N         29.50251       95.57877       44.76005
C         28.32470       95.59849       45.62905
C         28.60024       95.13385       47.05240
O         27.72824       95.31675       47.89077
C         27.20656       94.73382       45.03843
H         29.51419       94.92180       43.96675
H         27.94973       96.64624       45.66122
H         26.29215       94.79889       45.66680
H         26.95176       95.09231       44.01877
H         27.52806       93.67171       44.97862
N         29.75252       94.49275       47.39741
C         30.04223       94.03267       48.75402
C         31.28821       94.72012       49.27794
O         31.87897       95.51768       48.56064
C         30.13482       92.48842       48.77946
C         31.17231       91.92070       47.84939
O         30.83731       91.16771       46.94849
O         32.47377       92.21848       48.01493
H         30.45690       94.30419       46.67198
H         29.22242       94.31054       49.45114
H         29.13820       92.08441       48.49371
H         30.34668       92.13084       49.80908
N         31.74566       94.46108       50.53607
C         32.91900       95.10928       51.08977
C         34.04341       94.12181       51.16942
O         34.40841       93.57511       50.13834
H         31.26298       93.76325       51.12155
H         32.66811       95.55421       52.07739
H         33.27070       95.93869       50.44010
N         34.68515       93.87316       52.34231
C         35.84184       92.98953       52.40111
C         35.41854       91.56315       52.08747
O         35.93540       90.97917       51.14644
C         36.54120       93.10450       53.77547
C         37.95513       92.56149       53.75799
N         38.22023       91.25468       53.52871
O         38.88432       93.33136       53.95544
H         34.38235       94.37477       53.19216
H         36.57773       93.35537       51.64755
H         35.93935       92.63075       54.57967
H         36.62339       94.18825       54.01792
H         37.46793       90.57245       53.37141
H         39.19583       90.92105       53.51254
N         34.47389       90.94277       52.85173
C         34.03885       89.56655       52.65338
C         33.29700       89.33718       51.34587
O         33.14188       90.27678       50.57879
H         34.06166       91.46067       53.64293
H         33.33889       89.31174       53.47773
H         34.92116       88.89517       52.71516
N         32.75676       88.12266       51.01254
C         32.80898       86.92373       51.85446
C         33.43810       85.71428       51.15026
O         33.56346       84.68620       51.80299
C         31.37942       86.55946       52.34257
C         30.72291       87.68832       53.15574
O         30.55423       86.17000       51.27041
H         32.23158       88.06452       50.12617
H         33.42265       87.11205       52.75731
H         31.45869       85.68924       53.03067
H         30.28949       86.98363       50.76831
H         30.58632       88.60048       52.53649
H         29.72555       87.35990       53.51831
H         31.34793       87.94366       54.03699
N         33.83006       85.73385       49.83972
C         34.37151       84.56807       49.13068
C         35.76003       84.87961       48.56111
O         35.90667       85.94074       47.96895
C         33.39564       84.08516       48.00932
C         33.08532       85.16369       46.93531
C         32.09731       83.54884       48.64855
C         32.33185       84.61311       45.72188
H         33.71555       86.59960       49.29536
H         34.44884       83.69828       49.80384
H         33.89610       83.22741       47.50718
H         34.02790       85.57730       46.53081
H         32.49987       85.99513       47.38314
H         31.54138       84.36324       49.15961
H         31.43317       83.08216       47.89481
H         32.33147       82.75878       49.39399
H         32.17748       85.42789       44.98393
H         32.93026       83.81625       45.23429
H         31.33667       84.21069       45.99336
N         36.82985       84.01977       48.60442
C         36.83803       82.68763       49.22038
C         38.00385       81.81241       48.72418
O         38.88874       82.29193       48.03437
C         36.91253       82.80975       50.76860
C         38.14692       83.51960       51.27999
O         38.31333       83.67452       52.60655
O         38.99198       83.96535       50.51873
H         37.67426       84.32710       48.09982
H         35.91579       82.15565       48.90115
H         36.88353       81.79551       51.21966
H         36.04480       83.36610       51.16575
N         38.03663       80.48445       49.05436
C         39.12589       79.56995       48.70647
C         38.61454       78.45041       47.79956
O         37.64320       77.81443       48.17775
C         39.66326       78.90812       49.99885
C         40.76130       77.91487       49.67847
C         40.48752       76.53448       49.68154
C         42.04821       78.35673       49.32917
C         41.47899       75.61630       49.32509
C         43.04194       77.43249       48.98671
C         42.75558       76.06442       48.97895
H         37.24731       80.09775       49.59193
H         39.96560       80.11193       48.23777
H         38.81495       78.37671       50.48543
H         40.03300       79.66008       50.72888
H         39.49878       76.16969       49.93058
H         42.27904       79.41438       49.31746
H         41.25455       74.55732       49.30961
H         44.03203       77.77664       48.71769
H         43.52117       75.35126       48.70129
N         39.26681       78.05837       46.65290
C         40.47117       78.64414       46.08047
C         40.28701       80.08072       45.65938
O         41.09315       80.92032       46.02647
C         40.76422       77.76785       44.85433
C         40.24538       76.42615       45.31478
C         38.92203       76.83273       45.95670
H         41.30719       78.53895       46.80169
H         40.12265       78.06770       43.99459
H         41.82447       77.78875       44.52220
H         40.15848       75.65473       44.52098
H         40.92901       76.04852       46.11139
H         38.15122       77.05978       45.18800
H         38.58125       76.01764       46.63142
N         39.20922       80.43037       44.90423
C         38.95969       81.79551       44.46771
C         39.95046       82.15047       43.36764
O         39.93580       81.48167       42.34368
C         37.51235       81.93556       43.94441
C         36.47616       81.62315       45.04666
C         35.05231       81.72516       44.57311
O         34.05458       81.44079       45.43102
O         34.78385       82.04399       43.42505
H         38.52800       79.69612       44.66218
H         39.04205       82.47394       45.34106
H         37.35735       81.24528       43.08516
H         37.35464       82.97961       43.59376
H         36.61675       82.32505       45.89680
H         36.61878       80.58911       45.42275
N         40.85447       83.16581       43.46906
C         40.98464       84.02324       44.62572
H         41.79479       84.76328       44.45311
H         40.03679       84.57211       44.80424
H         41.25211       83.42534       45.52031
H         41.49143       83.33662       42.67495
Ca        35.26695       93.59613       47.29113
O         36.09838       96.07863       48.99808
H         36.94821       95.57325       48.94350
H         36.06176       96.59344       48.15312
O         35.66569       90.75927       48.20298
H         35.61484       89.81288       47.91870
H         34.80316       90.92708       48.65761
O         34.74661       91.48684       45.08402
H         33.88262       91.04972       45.29084
H         35.43163       90.84182       45.39249

Ca 1.0



