%chk=apoCaM-CA-Ng.loop3.water3.frame947.chk
%nprocshared=20
%mem=10GB
%nosave
#b3lyp/svp scf=(tight,noincore,xqc) Test 
#IOP(5/87=12) Density=Current Pop=(MK,readradii) iop(6/33=2) iop(6/42=6)

apoCaM-CA-Ng.loop3.water3.frame947 

   0  1 
C         75.75001      120.08535       59.99392
C         75.48779      121.54212       59.74964
O         74.80024      121.86924       58.79277
H         76.37524      119.93224       60.89935
H         74.78321      119.56075       60.14951
H         76.27197      119.64514       59.12073
N         75.97232      122.47937       60.60864
C         75.65521      123.89686       60.48466
C         76.34256      124.51900       59.26673
O         77.36667      123.99305       58.85263
C         76.06917      124.60519       61.80253
C         75.40913      125.92340       62.03645
O         75.64391      126.59821       63.17689
O         74.60453      126.35855       61.24049
H         76.51274      122.15665       61.42692
H         74.55795      123.96270       60.38466
H         77.17504      124.70315       61.85184
H         75.74409      123.98598       62.66266
N         75.87446      125.66711       58.67950
C         76.59533      126.38161       57.62568
C         77.11406      127.73622       58.11122
O         77.88866      128.34292       57.38390
C         75.73275      126.54867       56.34849
C         74.52492      127.49630       56.52032
C         73.78602      127.70489       55.18865
C         72.63087      128.70742       55.34103
N         71.94911      128.92426       54.06422
H         74.99354      126.07409       59.00744
H         77.49426      125.79338       57.34051
H         75.38300      125.55065       56.00496
H         76.38542      126.97090       55.55217
H         74.88506      128.48811       56.86994
H         73.81932      127.08914       57.27408
H         73.38891      126.73194       54.82591
H         74.50028      128.10242       54.43398
H         73.03059      129.68011       55.70650
H         71.89970      128.32599       56.08726
H         72.61971      129.30291       53.35610
H         71.53900      128.02710       53.71711
H         71.17837      129.61812       54.19996
N         76.72385      128.28393       59.30433
C         77.20937      129.56226       59.81433
C         77.85119      129.43265       61.20177
O         78.33107      130.43677       61.71013
C         76.05833      130.60346       59.84406
C         74.94480      130.28421       60.82118
O         74.10722      129.24441       60.61893
O         74.77842      131.00341       61.79116
H         76.03119      127.79632       59.87670
H         77.98999      129.96533       59.13197
H         75.63173      130.73018       58.82602
H         76.51111      131.57776       60.13461
N         77.88967      128.24781       61.88426
C         78.45908      128.09020       63.21746
C         77.72377      128.81862       64.34081
O         78.18710      128.70914       65.46692
H         77.53828      127.39277       61.43839
H         79.51882      128.42558       63.19657
H         78.45484      127.00879       63.47751
N         76.61816      129.59755       64.13328
C         75.99136      130.41041       65.18103
C         74.46853      130.22723       65.20043
O         73.92369      129.65161       64.27456
C         76.42080      131.87411       64.89474
C         76.01041      132.91633       65.90705
N         76.94215      133.53816       66.66798
O         74.83756      133.23827       66.01391
H         76.26231      129.70190       63.18020
H         76.39069      130.11693       66.17590
H         76.06060      132.19406       63.89279
H         77.53240      131.86505       64.84794
H         77.94124      133.29868       66.58696
H         76.66409      134.26192       67.34687
N         73.71210      130.71882       66.22610
C         72.25151      130.73228       66.23342
C         71.63506      129.35336       66.25728
O         71.90729      128.60795       67.18780
H         74.18974      131.15592       67.02725
H         71.89301      131.30950       65.35436
H         71.90438      131.26414       67.14586
N         70.78830      128.94795       65.26060
C         70.19802      127.61273       65.21009
C         70.89372      126.79846       64.08414
O         72.27382      126.99911       64.18863
C         68.66105      127.67181       64.96673
C         67.79109      128.27492       66.04191
C         66.86001      129.27574       65.71127
C         67.81553      127.77143       67.35414
C         65.96058      129.75166       66.67049
C         66.92175      128.25764       68.31499
C         65.98530      129.23983       67.97528
O         65.10648      129.67085       68.90318
H         70.61096      129.58617       64.47135
H         70.39891      127.06844       66.15872
H         68.25643      126.64864       64.88892
H         68.47139      128.16858       63.99127
H         66.80082      129.66252       64.70147
H         68.50736      126.98640       67.62995
H         65.23220      130.50364       66.39293
H         66.94122      127.85352       69.31942
H         64.42111      130.32375       68.69984
N         70.54908      125.36273       64.22582
C         71.14663      124.35960       63.31722
C         71.12594      124.81551       61.87037
O         71.82630      125.75428       61.53143
C         72.55372      123.88577       63.77518
C         73.08709      122.71252       62.90112
C         72.55286      123.49115       65.26288
C         72.25285      121.42527       62.91833
H         69.52467      125.26994       64.06521
H         70.49227      123.46558       63.40955
H         73.26877      124.72815       63.66531
H         74.11148      122.45051       63.23974
H         73.15279      123.04685       61.84887
H         72.27576      124.36015       65.89582
H         71.83021      122.67384       65.46527
H         73.56768      123.16107       65.57183
H         72.18601      121.00172       63.94053
H         71.23323      121.59263       62.51758
H         72.74092      120.66914       62.26771
N         70.32805      124.19618       60.95778
C         70.20939      124.66678       59.58443
C         68.82997      124.34944       59.05302
O         68.48009      123.18392       58.92696
C         71.29939      124.06947       58.68232
O         72.57083      124.47314       59.10066
H         69.70679      123.43834       61.28085
H         70.32498      125.77197       59.57243
H         71.14614      124.38436       57.62461
H         71.25239      122.96005       58.70584
H         72.66916      125.42432       58.83322
N         67.99132      125.37347       58.72902
C         66.62478      125.19733       58.23697
C         66.01868      126.54548       57.81774
O         66.60184      127.57803       58.11971
C         65.76806      124.53671       59.33522
H         68.36749      126.32572       58.83663
H         66.67683      124.55875       57.32793
H         66.14786      123.52536       59.58592
H         65.79115      125.15567       60.25618
H         64.71121      124.42068       59.04317
N         64.88593      126.66715       57.06476
C         64.06254      125.57904       56.55060
C         62.60115      125.81162       56.93244
O         62.25420      126.94406       57.23960
C         64.20276      125.56229       55.02473
H         64.61163      127.62543       56.79271
H         64.41331      124.60403       56.92013
H         65.26779      125.39773       54.75197
H         63.60041      124.75739       54.56154
H         63.87827      126.53484       54.59517
N         61.64497      124.83697       56.90005
C         61.90133      123.41613       56.70567
C         62.56507      122.87568       57.95518
O         63.63835      122.29669       57.86445
C         60.59925      122.61133       56.45547
C         59.86787      122.96776       55.14728
C         59.18826      124.30551       55.19402
O         59.48709      125.17858       54.39550
O         58.23055      124.54122       56.11231
H         60.67899      125.12713       57.11080
H         62.54177      123.24949       55.81525
H         59.89522      122.68819       57.31233
H         60.89842      121.54289       56.36444
H         59.07469      122.21023       54.97091
H         60.58389      122.91749       54.29750
N         61.96460      123.05075       59.16863
C         62.51947      122.58628       60.42215
H         62.69241      123.45750       61.08902
H         61.79389      121.90277       60.91099
H         63.48016      122.04841       60.28694
H         61.06720      123.55684       59.21622
Ca        73.01690      128.07554       62.27180
O         71.86612      131.18151       62.08210
H         72.37226      131.94346       62.46048
H         71.69262      131.43867       61.14170
O         69.86548      128.68579       61.70351
H         69.02231      128.66456       61.18606
H         69.80077      129.51381       62.24088
O         71.63282      128.14535       59.18239
H         70.65383      128.26577       59.09780
H         72.01965      128.86976       58.62994

Ca 1.0



