%chk=apoCaM-CA-Ng.loop2.water5.frame408.chk
%nprocshared=20
%mem=10GB
%nosave
#b3lyp/svp scf=(tight,noincore,xqc) Test 
#IOP(5/87=12) Density=Current Pop=(MK,readradii) iop(6/33=2) iop(6/42=6)

apoCaM-CA-Ng.loop2.water5.frame408 

   -2  1 
C         78.74599       89.94363       85.88411
C         77.53073       89.79956       85.01606
O         77.65112       89.88381       83.80202
H         79.64730       90.15573       85.26973
H         78.60508       90.77520       86.60592
H         78.90874       88.99944       86.44430
N         76.30790       89.60769       85.58520
C         75.08154       89.45042       84.81566
C         74.30807       90.75364       84.84190
O         73.99240       91.25550       85.91174
C         74.25537       88.27519       85.38144
C         73.00019       87.96358       84.59993
O         72.20364       86.95870       85.00959
O         72.69571       88.59496       83.59975
H         76.23935       89.61561       86.61532
H         75.32689       89.19969       83.75949
H         73.97069       88.49841       86.43265
H         74.88630       87.36037       85.37803
N         73.95515       91.34545       83.66774
C         73.24770       92.61324       83.58061
C         74.18194       93.76366       83.89144
O         75.26292       93.82241       83.32054
C         72.68687       92.80324       82.16801
H         74.17830       90.85402       82.78809
H         72.36288       92.60465       84.25631
H         73.49789       92.82035       81.40989
H         71.98859       91.97153       81.93186
H         72.11705       93.75603       82.11267
N         73.77785       94.77225       84.71038
C         74.57404       95.96944       84.96337
C         74.02877       97.17136       84.20137
O         74.46063       98.27183       84.49660
C         74.68480       96.25264       86.48061
C         73.38399       96.62974       87.14473
O         72.45891       95.83709       87.20732
O         73.24927       97.84654       87.70673
H         72.82145       94.72970       85.08899
H         75.61822       95.83194       84.60491
H         75.39369       97.09898       86.61824
H         75.12412       95.37280       86.99276
N         73.09558       97.03439       83.20969
C         72.50659       98.12352       82.44003
C         73.44466       98.79076       81.44420
O         73.21164       98.65553       80.25017
H         72.73527       96.09518       82.99066
H         72.04663       98.87473       83.11529
H         71.67825       97.68163       81.83989
N         74.46895       99.59790       81.84521
C         75.28019      100.38598       80.92036
C         76.16393       99.53691       79.98786
O         76.79408      100.11315       79.11199
C         76.12207      101.40494       81.73226
C         76.58007      102.58639       80.91767
N         75.67082      103.45269       80.40621
O         77.77308      102.79171       80.75737
H         74.60024       99.76433       82.84539
H         74.55870      100.96241       80.29977
H         76.97501      100.87576       82.21146
H         75.50116      101.84453       82.54470
H         74.66112      103.31315       80.56464
H         75.97218      104.28211       79.87440
N         76.23010       98.17077       80.08039
C         76.94087       97.32455       79.12547
C         78.45142       97.41574       79.19115
O         78.99125       98.14143       80.01486
H         75.69194       97.68156       80.80689
H         76.59450       97.57609       78.09876
H         76.67754       96.26315       79.32060
N         79.19957       96.69380       78.30002
C         80.65673       96.79649       78.21796
C         81.38959       96.08704       79.35697
O         82.58114       96.32748       79.48908
C         81.19980       96.32578       76.83552
C         81.09903       94.81130       76.58878
O         80.58480       97.04748       75.79512
H         78.69406       96.13902       77.59348
H         80.89982       97.88165       78.27562
H         82.28541       96.56449       76.79138
H         79.70975       96.62506       75.59232
H         80.05229       94.44949       76.65852
H         81.49645       94.56544       75.58148
H         81.72760       94.27617       77.32028
N         80.77368       95.19738       80.19834
C         81.46317       94.53700       81.31586
C         80.84078       95.02231       82.62224
O         79.81221       95.68475       82.58568
C         81.42656       92.97336       81.13537
C         82.02440       92.51482       79.77923
C         82.10596       92.18330       82.27177
C         83.49646       92.88284       79.54842
H         79.77488       94.98295       80.06043
H         82.52348       94.86379       81.35189
H         80.36098       92.65317       81.12663
H         81.41080       92.93789       78.96662
H         81.93001       91.40959       79.69467
H         81.56059       92.30775       83.22698
H         82.07739       91.09360       82.05560
H         83.16597       92.48770       82.40057
H         84.15328       92.42631       80.31639
H         83.81838       92.50355       78.55560
H         83.64473       93.97928       79.55031
N         81.45703       94.78781       83.81707
C         80.96056       95.28020       85.09571
C         81.96527       96.24561       85.74215
O         81.68543       96.74222       86.82475
C         80.61388       94.06705       85.98301
C         80.01642       94.47813       87.32863
O         79.64973       93.34963       88.07037
O         78.87078       95.26794       87.17067
H         82.34269       94.26290       83.83156
H         80.01929       95.85299       84.94864
H         81.52676       93.45860       86.16420
H         79.87340       93.43187       85.44616
N         83.11745       96.62196       85.10764
C         84.02287       97.64057       85.62980
C         84.74577       97.17153       86.89333
O         85.39849       96.13874       86.82616
C         85.09692       97.98694       84.57185
C         85.95364       99.13975       85.03739
C         85.40678      100.43124       85.13455
C         87.29455       98.93235       85.39947
C         86.18693      101.49511       85.59422
C         88.06971       99.99836       85.86583
C         87.51658      101.27827       85.96333
H         83.33078       96.23922       84.17630
H         83.42199       98.55610       85.80100
H         84.62856       98.26361       83.60204
H         85.71755       97.08071       84.39190
H         84.37522      100.61245       84.85799
H         87.73341       97.94428       85.34028
H         85.75836      102.48621       85.66883
H         89.09834       99.83090       86.15655
H         88.11755      102.10177       86.32591
N         84.75490       97.90010       88.05595
C         85.52977       97.55501       89.24413
C         85.32853       96.13410       89.71220
O         86.30345       95.45178       89.99381
C         85.01593       98.53703       90.30306
C         84.74728       99.76278       89.46780
C         84.05862       99.15858       88.24838
H         86.60763       97.74542       89.03558
H         84.02875       98.20030       90.69487
H         85.70705       98.68454       91.16053
H         84.17722      100.57315       89.96830
H         85.73633      100.16782       89.14763
H         82.98217       98.94417       88.42653
H         84.18220       99.87595       87.41625
N         84.07247       95.61918       89.78412
C         83.77459       94.26066       90.22149
C         84.54582       93.26129       89.38043
O         85.30130       92.47897       89.94155
C         82.25929       93.99129       90.12554
C         81.44314       94.89782       91.06668
C         79.97066       94.68297       90.88414
O         79.42463       93.47390       91.11504
O         79.25982       95.60899       90.52655
H         83.29867       96.22544       89.47519
H         84.08045       94.13812       91.28505
H         82.05144       92.93048       90.38802
H         81.94617       94.16071       89.07729
H         81.65812       95.96790       90.86850
H         81.71537       94.68379       92.12153
N         84.44037       93.25574       88.02354
C         85.21476       92.35008       87.20272
H         86.30018       92.51368       87.38091
H         84.95639       91.29816       87.44694
H         85.00303       92.53468       86.12854
H         83.81635       93.93038       87.55617
Ca        77.52808       94.03139       88.51238
O         76.55612       92.59293       86.27753
H         76.72014       93.17797       85.49740
H         75.77276       92.99364       86.73116
O         76.62881       95.27165       91.67563
H         76.42749       94.68632       92.44791
H         75.92764       95.96999       91.70056
O         76.78173       97.18595       89.05010
H         76.08002       97.61431       89.60184
H         77.17290       97.92869       88.52513
O         76.26134       91.82651       90.10711
H         75.58318       91.66627       89.40340
H         75.75721       91.77118       90.95731
O         74.57009       94.52838       89.51440
H         73.97378       94.05802       88.87944
H         74.07258       94.52785       90.36995

Ca 1.0



