%chk=apoCaM-CA-Ng.loop3.water4.frame297.chk
%nprocshared=20
%mem=10GB
%nosave
#b3lyp/svp scf=(tight,noincore,xqc) Test 
#IOP(5/87=12) Density=Current Pop=(MK,readradii) iop(6/33=2) iop(6/42=6)

apoCaM-CA-Ng.loop3.water4.frame297 

   0  1 
C         99.87333       50.14509       30.10954
C        101.22372       50.73289       29.82967
O        102.12061       50.01549       29.41187
H         99.10503       50.65729       29.49407
H         99.85761       49.05807       29.88545
H         99.62950       50.28951       31.18469
N        101.43748       52.05419       30.07428
C        102.71774       52.73496       29.93296
C        103.73955       52.11133       30.87230
O        104.84180       51.77368       30.46129
C        103.16738       52.78925       28.45366
C        104.36266       53.68070       28.21353
O        104.94254       54.36628       29.21935
O        104.80467       53.79828       27.08287
H        100.64783       52.61472       30.43233
H        102.55831       53.78468       30.27000
H        102.33001       53.19028       27.84262
H        103.40173       51.76523       28.09489
N        103.41004       51.93540       32.18130
C        104.34454       51.43719       33.18568
C        104.85771       50.03268       32.86825
O        105.88289       49.65845       33.42141
C        103.68945       51.43313       34.59294
C        103.18670       52.82650       35.04034
C        102.50742       52.83633       36.42216
C        101.24899       51.95007       36.48884
N        100.55437       52.11862       37.76529
H        102.45575       52.19610       32.46539
H        105.21590       52.12980       33.19754
H        104.42578       51.07020       35.34332
H        102.83811       50.72123       34.56194
H        102.44960       53.23663       34.32222
H        104.05034       53.52516       35.06895
H        102.20583       53.88707       36.62957
H        103.22893       52.52162       37.20609
H        101.53212       50.88195       36.37432
H        100.55306       52.22120       35.66387
H        100.21559       53.10385       37.85981
H         99.72866       51.47722       37.79331
H        101.19223       51.88599       38.56051
N        104.16691       49.17058       32.06122
C        104.59763       47.78693       31.83861
C        105.74594       47.74013       30.82760
O        105.91805       48.69719       30.08380
C        103.39102       46.95438       31.34359
C        103.50586       45.46241       31.55465
O        102.65692       44.88593       32.21639
O        104.48829       44.73917       30.99372
H        103.25547       49.47317       31.68993
H        104.90284       47.38215       32.82989
H        103.19046       47.18904       30.27442
H        102.49404       47.27088       31.92162
N        106.59261       46.67252       30.75891
C        107.70907       46.60732       29.82466
C        107.33875       46.22706       28.39547
O        108.24267       46.21252       27.57157
H        106.51051       45.92497       31.46188
H        108.41900       45.82529       30.17156
H        108.25836       47.57412       29.84427
N        106.08004       45.84261       28.02140
C        105.77702       45.37964       26.65892
C        105.81409       46.49515       25.62822
O        105.68359       46.18648       24.44962
C        104.35994       44.76123       26.56696
C        104.19756       43.49007       27.34556
N        103.81809       42.34023       26.73962
O        104.38659       43.50070       28.54412
H        105.33815       45.81623       28.73344
H        106.51867       44.60032       26.37154
H        104.11560       44.53638       25.50507
H        103.62782       45.50107       26.94149
H        103.63924       42.30630       25.72602
H        103.69067       41.47787       27.28885
N        105.89897       47.80976       25.97305
C        105.72687       48.86640       24.99514
C        104.33213       48.79270       24.41588
O        104.18731       48.68296       23.20699
H        106.01415       48.08838       26.95739
H        106.50166       48.78766       24.20021
H        105.84072       49.85143       25.49580
N        103.25363       48.83729       25.25122
C        101.86683       48.79047       24.80036
C        101.17526       47.55393       25.35456
O        101.79866       46.78315       26.06576
C        101.13788       50.08904       25.21451
C        101.72558       51.29755       24.51750
C        103.00704       51.77884       24.84344
C        100.99010       51.95081       23.51336
C        103.54611       52.87507       24.16643
C        101.53225       53.04653       22.83683
C        102.81502       53.50992       23.15937
O        103.35406       54.56054       22.50949
H        103.42187       48.91775       26.26641
H        101.81360       48.70655       23.69203
H        101.15309       50.23302       26.31723
H        100.07400       49.99738       24.91380
H        103.59565       51.31270       25.62042
H        100.00165       51.60303       23.23987
H        104.53639       53.22899       24.42281
H        100.95611       53.52973       22.05829
H        102.88405       55.02220       21.80069
N         99.87688       47.27997       25.03563
C         99.21162       46.04185       25.43922
C         99.90540       44.89539       24.71694
O        100.40635       43.98811       25.36760
C         97.68030       46.10224       25.14196
C         96.98621       47.32165       25.82232
C         96.97474       44.79926       25.56591
C         97.11180       47.38174       27.35071
H         99.36484       47.94790       24.44364
H         99.32033       45.90110       26.53671
H         97.53226       46.21711       24.04524
H         95.90562       47.30870       25.56073
H         97.39712       48.26879       25.41735
H         97.38392       43.92898       25.02272
H         97.09773       44.60310       26.65034
H         95.89022       44.85714       25.33075
H         96.57186       48.27577       27.72730
H         96.66423       46.48890       27.83133
H         98.17195       47.47856       27.66256
N        100.06120       44.94492       23.36222
C        100.91224       44.01657       22.62266
C        100.30751       42.63631       22.42552
O        100.99670       41.79488       21.86511
C        101.26225       44.61525       21.24662
O        101.87032       45.87137       21.39307
H         99.67598       45.76320       22.86466
H        101.87053       43.90507       23.17866
H        100.33713       44.73934       20.64341
H        101.94008       43.94107       20.67504
H        102.77195       45.70930       21.77651
N         99.04520       42.31587       22.84089
C         98.42285       41.01230       22.62297
C         99.15043       39.86285       23.31425
O         98.73486       38.72989       23.10853
C         98.26052       40.74546       21.11550
H         98.47160       43.02851       23.30552
H         97.39213       41.03850       23.04252
H         97.68105       41.57075       20.64922
H         99.23545       40.65649       20.59622
H         97.69801       39.80150       20.94906
N        100.20318       40.05676       24.16968
C        100.90562       38.95526       24.81865
C        100.68097       38.97559       26.31663
O        100.10829       39.92357       26.83734
C        102.39628       39.02052       24.48003
H        100.51383       41.01016       24.40168
H        100.51099       37.98257       24.45228
H        102.94399       38.17142       24.94008
H        102.53422       38.97073       23.37874
H        102.83449       39.97205       24.85025
N        101.02876       37.88206       27.05597
C        100.71530       37.69919       28.46964
C         99.22289       37.92597       28.70185
O         98.85572       38.72224       29.55729
C        101.55212       38.61914       29.38200
C        103.07388       38.49554       29.23053
C        103.69819       39.46926       30.19249
O        104.25039       40.59430       29.71250
O        103.55109       39.33236       31.39687
H        101.45728       37.08075       26.56687
H        100.95950       36.64687       28.73743
H        101.28453       38.38484       30.43707
H        101.27419       39.67519       29.17581
H        103.34961       38.77388       28.18936
H        103.43442       37.46410       29.43246
N         98.30249       37.29413       27.92264
C         96.87600       37.53183       28.03560
H         96.35374       36.57459       28.23358
H         96.62451       38.24336       28.85126
H         96.50127       37.96219       27.08271
H         98.62296       36.64694       27.18702
Ca       104.31846       42.47774       30.96174
O        101.34332       42.31886       30.17941
H        101.17342       42.17620       29.21438
H        100.59545       41.85775       30.63609
O        102.41423       41.63864       33.35981
H        101.51887       41.92952       33.66645
H        102.80705       41.17494       34.14155
O        105.86632       42.14498       33.48213
H        106.05272       43.02845       33.88839
H        105.80165       41.52384       34.25019
O        107.11522       43.12507       30.17497
H        107.51167       42.99650       31.07313
H        107.78792       42.75833       29.54853

Ca 1.0



