%chk=apoCaM-CA-Ng.loop2.water3.frame314.chk
%nprocshared=20
%mem=10GB
%nosave
#b3lyp/svp scf=(tight,noincore,xqc) Test 
#IOP(5/87=12) Density=Current Pop=(MK,readradii) iop(6/33=2) iop(6/42=6)

apoCaM-CA-Ng.loop2.water3.frame314 

   -2  1 
C         49.56968       99.98608       34.96321
C         49.35238      101.03960       36.00905
O         48.60761      100.80672       36.95026
H         50.64541       99.71872       34.91835
H         48.97656       99.07449       35.18845
H         49.25166      100.37591       33.97248
N         49.95001      102.25456       35.87275
C         49.73241      103.37316       36.78062
C         48.87521      104.36608       36.03544
O         49.25472      104.78110       34.94735
C         51.08552      103.96365       37.22178
C         50.96425      105.09323       38.21481
O         51.97581      105.63174       38.63419
O         49.76331      105.51357       38.65958
H         50.52958      102.41937       35.03389
H         49.19020      103.03701       37.69236
H         51.63896      104.32834       36.32891
H         51.68478      103.15743       37.69801
N         47.65315      104.72657       36.52179
C         46.69520      105.44573       35.69539
C         46.24177      104.55028       34.54678
O         45.78364      105.06630       33.53798
C         45.47844      105.87978       36.51661
H         47.36852      104.41077       37.46234
H         47.18762      106.36315       35.30160
H         44.95607      104.99513       36.94078
H         45.80395      106.53709       37.35124
H         44.76703      106.44816       35.88030
N         46.31723      103.18602       34.65891
C         45.94757      102.23096       33.62431
C         44.48172      102.39073       33.25749
O         44.14837      102.61400       32.10152
C         46.93136      102.33155       32.43964
C         46.75566      101.19876       31.46776
O         46.48730      101.42534       30.29943
O         46.91723       99.92600       31.88014
H         46.64844      102.77220       35.54252
H         46.07069      101.21194       34.05876
H         47.96965      102.26776       32.83257
H         46.81920      103.30978       31.92539
N         43.54777      102.29890       34.24210
C         42.11955      102.46435       34.04339
C         41.34189      101.26702       34.54555
O         40.14562      101.40394       34.75066
H         43.86829      102.12718       35.20841
H         41.84273      102.67799       32.98803
H         41.81658      103.34151       34.65456
N         41.94461      100.05854       34.75394
C         41.25936       98.90553       35.33162
C         42.04953       98.36687       36.51465
O         43.12580       98.86377       36.81162
C         41.07538       97.81649       34.25559
C         40.11639       98.26565       33.18146
N         38.82176       98.53084       33.48310
O         40.50495       98.37545       32.02859
H         42.93087       99.93345       34.48325
H         40.26086       99.19544       35.72282
H         40.65179       96.89001       34.69713
H         42.06624       97.56425       33.81670
H         38.47017       98.42607       34.44654
H         38.16142       98.83105       32.75115
N         41.53927       97.33768       37.24893
C         42.20709       96.75200       38.40040
C         42.43050       95.27132       38.20180
O         42.14873       94.74813       37.13288
H         40.61632       96.95575       36.99630
H         41.54796       96.89348       39.28297
H         43.18294       97.23701       38.61517
N         42.90794       94.51868       39.23449
C         43.06288       93.06718       39.13071
C         44.17810       92.65606       38.17062
O         44.24969       91.47431       37.85522
C         43.24028       92.40089       40.52427
C         44.53581       92.78707       41.25451
O         42.11804       92.65102       41.33616
H         43.08683       94.99267       40.13038
H         42.10568       92.66912       38.72401
H         43.28159       91.29996       40.37163
H         42.16740       93.58671       41.66229
H         44.59055       93.87797       41.44826
H         44.58814       92.25529       42.22775
H         45.41204       92.48029       40.65753
N         45.07800       93.55199       37.66666
C         46.12062       93.20963       36.70296
C         45.88869       94.01443       35.44238
O         45.80731       95.23607       35.51401
C         47.54019       93.48443       37.28067
C         47.83124       92.66736       38.56509
C         48.63953       93.22630       36.22813
C         47.79132       91.14128       38.39930
H         45.02970       94.53782       37.96656
H         46.07622       92.13296       36.43445
H         47.60349       94.56033       37.55940
H         47.10322       92.95858       39.34267
H         48.83835       92.94593       38.94419
H         48.51820       93.89904       35.35526
H         49.64183       93.43124       36.66008
H         48.61039       92.18097       35.85742
H         48.02275       90.66064       39.37247
H         46.78865       90.79059       38.08656
H         48.54432       90.79440       37.66300
N         45.79923       93.38582       34.23842
C         45.66608       94.10631       32.97773
C         45.08736       93.22266       31.85230
O         45.08591       93.64932       30.70859
C         47.05579       94.69294       32.62008
C         47.02177       95.78748       31.58990
O         45.85612       96.24124       31.09056
O         48.06694       96.31386       31.24314
H         45.97146       92.37054       34.22809
H         44.95469       94.94971       33.12755
H         47.72969       93.86952       32.29631
H         47.50284       95.16645       33.51962
N         44.52242       92.00123       32.11053
C         43.96313       91.12392       31.08651
C         45.06881       90.58754       30.18479
O         46.04783       90.09331       30.72840
C         43.28630       89.90842       31.76858
C         42.53314       89.07828       30.76255
C         41.35642       89.58468       30.18446
C         42.99901       87.80985       30.38080
C         40.65991       88.83589       29.23368
C         42.30360       87.06770       29.42106
C         41.13541       87.58005       28.84854
H         44.43350       91.67751       33.07963
H         43.18389       91.68042       30.52567
H         42.56700       90.23551       32.55087
H         44.07052       89.30440       32.27905
H         40.98140       90.55985       30.47056
H         43.90764       87.40514       30.80908
H         39.75513       89.23314       28.79255
H         42.67241       86.09673       29.11790
H         40.59873       87.00504       28.10576
N         44.98178       90.55981       28.81711
C         45.99466       89.93331       27.98501
C         47.19775       90.83652       27.77518
O         48.17803       90.37259       27.20933
C         45.24201       89.64368       26.68491
C         44.32879       90.85148       26.58669
C         43.84749       90.99997       28.03086
H         46.33599       88.96862       28.42424
H         45.88071       89.43709       25.79956
H         44.58582       88.75816       26.85522
H         44.96696       91.72735       26.33272
H         43.51265       90.77765       25.83705
H         43.55665       92.05379       28.22621
H         42.99976       90.31614       28.22871
N         47.19743       92.13856       28.18599
C         48.35666       93.00949       28.04321
C         49.44212       92.66366       29.05854
O         50.50795       93.25896       28.98207
C         47.93286       94.48891       28.19363
C         46.97902       94.91074       27.05656
C         46.49601       96.35925       27.15377
O         47.57285       97.25315       27.19872
O         45.72949       96.55659       28.30693
H         46.34012       92.53788       28.59190
H         48.77717       92.88870       27.01919
H         48.83326       95.13974       28.15006
H         47.44405       94.62721       29.17868
H         46.07902       94.26080       27.04050
H         47.50510       94.78920       26.08557
N         49.25158       91.72786       30.03774
C         50.26085       91.36943       31.01318
H         51.20870       91.92863       30.87190
H         49.87509       91.57962       32.03290
H         50.47873       90.28361       30.93078
H         48.35244       91.23748       30.12342
Ca        47.01348       98.21097       29.18091
O         44.04435       98.96885       30.53582
H         44.09158       99.77633       31.10669
H         43.34240       99.17767       29.86956
O         45.81704      100.43251       27.35463
H         46.53223      100.62455       26.69735
H         45.42906       99.57203       27.05528
O         49.42232       99.91029       28.83824
H         50.12819      100.03817       29.52040
H         48.99950      100.80082       28.74570

Ca 1.0



