%chk=apoCaM-CA-Ng.loop1.water3.frame322.chk
%nprocshared=20
%mem=10GB
%nosave
#b3lyp/svp scf=(tight,noincore,xqc) Test 
#IOP(5/87=12) Density=Current Pop=(MK,readradii) iop(6/33=2) iop(6/42=6)

apoCaM-CA-Ng.loop1.water3.frame322 

   0  1 
C         34.74597       92.11004       59.86652
C         34.20531       93.04522       58.82560
O         34.96970       93.53611       58.00725
H         35.50125       92.63887       60.48309
H         33.94018       91.74329       60.53857
H         35.21486       91.23418       59.37290
N         32.87722       93.33375       58.79442
C         32.27204       94.21985       57.80871
C         32.61795       95.69569       58.06212
O         32.10756       96.53078       57.34223
C         30.72649       94.05403       57.83119
C         30.24774       92.65952       57.50854
O         30.53612       91.62466       58.31909
O         29.55097       92.46699       56.52411
H         32.26736       92.87488       59.48720
H         32.60614       93.92522       56.78920
H         30.29053       94.70669       57.05837
H         30.31879       94.36287       58.81803
N         33.43784       96.12617       59.06151
C         33.49744       97.53544       59.45178
C         34.78020       98.22113       59.00627
O         35.83332       97.66529       59.28581
C         33.41591       97.62855       60.98718
C         32.12676       97.01939       61.56451
C         32.13462       97.00501       63.10128
C         32.14314       98.40900       63.72836
N         32.17373       98.32204       65.18727
H         33.92981       95.44850       59.65822
H         32.62566       98.06134       59.04887
H         33.48004       98.69668       61.27297
H         34.29052       97.09713       61.42510
H         32.04380       95.96190       61.23237
H         31.23846       97.57088       61.18844
H         33.02266       96.43303       63.45003
H         31.22383       96.47027       63.44838
H         31.23171       98.95995       63.40629
H         33.03425       98.98255       63.39911
H         32.16053       99.28769       65.58769
H         31.34175       97.79470       65.53782
H         33.05136       97.84246       65.49523
N         34.84108       99.46329       58.41139
C         33.74882      100.35899       58.00296
C         32.61754      100.50247       59.01962
O         31.49664      100.12988       58.70046
C         33.20812      100.00991       56.59900
C         34.22295      100.20138       55.51030
O         34.86451      101.37810       55.37588
O         34.41112       99.32150       54.69158
H         35.78834       99.84535       58.26076
H         34.16819      101.38073       57.86989
H         32.39735      100.73207       56.36618
H         32.79194       98.98269       56.57098
N         32.75785      101.09215       60.23500
C         33.96868      101.75378       60.69804
C         33.67429      102.65693       61.89062
O         32.58842      102.58345       62.44992
H         31.89608      101.15285       60.79842
H         34.30338      102.43263       59.88842
H         34.77768      101.02118       60.90869
N         34.53115      103.63134       62.30105
C         35.85434      103.88877       61.75167
C         35.81566      105.07108       60.79918
O         35.25612      106.10938       61.12297
C         36.87273      104.07233       62.89504
C         36.52675      105.16794       63.87242
O         36.47324      106.33327       63.51513
O         36.28999      104.86090       65.16205
H         34.18530      104.27799       63.02752
H         36.21459      103.01169       61.17287
H         37.87877      104.27035       62.46622
H         36.92282      103.11333       63.45459
N         36.40348      104.95764       59.57551
C         36.37198      105.99012       58.55815
C         34.97047      106.18634       58.06358
O         34.49655      107.31380       58.02513
H         36.90139      104.08676       59.33774
H         36.97650      105.64610       57.69128
H         36.81518      106.93875       58.93379
N         34.23759      105.10208       57.68759
C         32.88137      105.19014       57.17530
C         31.91232      104.64223       58.21532
O         32.34862      104.02591       59.17876
C         32.79736      104.36925       55.84916
C         33.87336      104.73215       54.81808
O         31.53890      104.47520       55.24452
H         34.65202      104.16173       57.79461
H         32.61609      106.25383       56.98966
H         32.96158      103.29839       56.10726
H         31.39036      105.42969       55.01949
H         33.76393      105.78697       54.49356
H         34.89151      104.57624       55.23141
H         33.76596      104.06975       53.93091
N         30.57055      104.81963       58.06897
C         29.56421      104.16652       58.90968
C         28.78132      103.15341       58.07770
O         27.99782      102.40346       58.63825
C         28.62527      105.22028       59.59278
C         27.58583      104.61329       60.57919
C         27.85510      106.05776       58.55066
C         28.20078      103.82058       61.73253
H         30.25470      105.39675       57.27614
H         30.08236      103.59012       59.70448
H         29.26783      105.91342       60.17974
H         26.85749      103.96845       60.04576
H         27.00003      105.44441       61.02976
H         27.20401      105.40797       57.92644
H         27.21180      106.80844       59.05674
H         28.54022      106.62044       57.88788
H         27.38974      103.47075       62.40670
H         28.73972      102.92343       61.36744
H         28.89390      104.46279       62.31469
N         28.96108      103.05962       56.72705
C         28.23654      102.13942       55.88353
C         29.06996      100.88855       55.76513
O         30.13326      100.92361       55.16173
C         27.97256      102.78706       54.50115
C         27.22051      104.11740       54.62810
O         27.22476      101.91564       53.69421
H         29.64022      103.64741       56.25097
H         27.25584      101.90479       56.35400
H         28.94691      103.02849       54.00833
H         27.87446      101.35350       53.19647
H         26.23529      103.96586       55.11540
H         27.80547      104.85034       55.22579
H         27.06525      104.55851       53.62092
N         28.67497       99.75710       56.40552
C         29.47053       98.53481       56.42184
C         29.54585       97.88923       55.03603
O         28.95354       98.40562       54.09772
C         28.95054       97.57870       57.53303
C         27.53348       97.05009       57.30677
O         28.99344       98.23332       58.77669
H         27.81341       99.80503       56.96747
H         30.50368       98.79801       56.72104
H         29.59937       96.68921       57.58366
H         29.91208       98.11820       59.13669
H         27.47459       96.49168       56.35073
H         27.27025       96.35765       58.13554
H         26.78606       97.86833       57.30105
N         30.25426       96.73671       54.84767
C         30.34754       96.01491       53.58894
C         31.80341       95.68104       53.19600
O         31.99452       95.10643       52.13417
C         29.55117       94.70505       53.77422
C         28.99487       94.13886       52.46539
C         28.31451       92.78528       52.72240
C         27.52484       92.27145       51.50913
N         26.30020       93.04715       51.28844
H         30.67530       96.29069       55.65377
H         29.87219       96.62580       52.79104
H         28.65454       94.91082       54.40334
H         30.17776       93.96838       54.32585
H         29.78620       93.99756       51.70154
H         28.26855       94.88659       52.08473
H         27.62190       92.83956       53.59095
H         29.11678       92.05558       52.97057
H         27.23229       91.21779       51.71135
H         28.16328       92.28241       50.59825
H         25.69501       93.00549       52.14158
H         26.51211       94.04272       51.05877
H         25.77142       92.63114       50.48886
N         32.87275       95.95370       54.01322
C         34.25029       95.54391       53.71665
C         34.35166       94.03261       53.59748
O         33.98503       93.33318       54.53202
C         35.21930       96.02295       54.83567
C         36.69319       95.61538       54.61898
C         37.26377       96.11860       53.31894
O         37.60003       95.31989       52.45950
O         37.44503       97.43541       53.09437
H         32.71536       96.45236       54.89642
H         34.56857       96.02400       52.76573
H         34.89042       95.60610       55.81382
H         35.17097       97.11817       54.91323
H         36.75924       94.50631       54.64180
H         37.31526       95.99922       55.45618
N         34.90123       93.47027       52.48384
C         35.10519       92.04464       52.32188
H         36.19243       91.84222       52.21242
H         34.73006       91.45950       53.18749
H         34.58365       91.69851       51.40621
H         35.22731       94.08062       51.71985
Ca        37.21903       99.02113       54.68740
O         35.43440       99.27234       51.53078
H         35.02559       98.46026       51.13870
H         35.35724       99.95716       50.81976
O         38.35012      102.25111       54.64992
H         38.26634      102.83371       55.44611
H         38.57499      102.87140       53.91144
O         35.85372      102.25490       52.68201
H         35.22048      102.35173       51.92737
H         36.24366      103.15773       52.79547

Ca 1.0



