%chk=apoCaM-CA-Ng.loop2.water4.frame556.chk
%nprocshared=20
%mem=10GB
%nosave
#b3lyp/svp scf=(tight,noincore,xqc) Test 
#IOP(5/87=12) Density=Current Pop=(MK,readradii) iop(6/33=2) iop(6/42=6)

apoCaM-CA-Ng.loop2.water4.frame556 

   -2  1 
C         51.94407       39.92433       85.68590
C         51.42187       40.52180       84.41049
O         51.03106       41.68038       84.41866
H         52.81646       40.51503       86.03710
H         51.15469       39.94145       86.46585
H         52.27260       38.87394       85.53725
N         51.39616       39.78654       83.26283
C         50.94744       40.32192       81.98192
C         51.82746       41.48443       81.56426
O         53.01337       41.28847       81.35145
C         50.98864       39.21443       80.90586
C         50.68412       39.73450       79.52618
O         51.51599       39.62767       78.63819
O         49.50731       40.33387       79.26632
H         51.71750       38.80692       83.30489
H         49.89338       40.66618       82.08476
H         50.25454       38.42263       81.17004
H         52.00238       38.75512       80.89490
N         51.29043       42.72619       81.40851
C         52.05718       43.88691       80.97094
C         53.17253       44.22323       81.95072
O         52.96633       44.05378       83.14444
C         51.12715       45.10066       80.84579
H         50.28229       42.84567       81.59338
H         52.46365       43.67432       79.96394
H         50.65686       45.33068       81.82605
H         51.68128       45.99904       80.50441
H         50.32720       44.88634       80.10590
N         54.34641       44.80983       81.56514
C         54.68435       45.15808       80.18544
C         54.96243       43.92728       79.32590
O         54.99717       42.81872       79.84004
C         55.82214       46.20784       80.16770
C         57.15982       45.75108       80.68429
O         57.48403       44.44233       80.71308
O         58.02235       46.58625       80.91115
H         54.99224       45.09847       82.31547
H         53.81269       45.68611       79.74878
H         55.48110       47.05770       80.79954
H         55.97218       46.61408       79.14429
N         55.14692       44.06029       77.98346
C         55.32306       42.93653       77.07041
C         54.01041       42.21578       76.79811
O         53.00870       42.56411       77.40747
H         55.14485       45.00734       77.57628
H         56.11202       42.24667       77.44074
H         55.65731       43.35691       76.10032
N         53.88671       41.23621       75.84934
C         54.97942       40.73381       75.01659
C         55.80706       39.66639       75.73546
O         56.75035       39.16373       75.13888
C         54.42074       40.10740       73.71169
C         53.57870       41.06488       72.90028
N         52.31575       40.73579       72.53552
O         54.04933       42.13586       72.54711
H         52.93849       40.86569       75.67472
H         55.62979       41.57939       74.70668
H         53.82510       39.20006       73.95583
H         55.27330       39.79324       73.07095
H         51.90630       39.82733       72.79880
H         51.74837       41.38255       71.96725
N         55.48296       39.22442       76.98742
C         56.13379       38.10589       77.65630
C         57.58137       38.31093       78.07523
O         58.11534       37.39227       78.68162
H         54.67102       39.62796       77.47338
H         56.06710       37.20753       77.00160
H         55.56036       37.88037       78.58053
N         58.30156       39.43326       77.78091
C         59.72692       39.54392       78.09383
C         59.95560       39.79339       79.62654
O         59.83334       41.16369       79.89935
C         60.36911       40.61997       77.17260
C         61.86666       40.83472       77.38993
O         60.16855       40.24738       75.82985
H         57.86096       40.17974       77.22785
H         60.19686       38.57466       77.80635
H         59.87521       41.59100       77.37832
H         59.62049       40.95262       75.39568
H         62.22448       41.62206       76.69315
H         62.07586       41.19279       78.41795
H         62.42881       39.89773       77.19622
N         61.32252       39.39307       80.02187
C         61.50608       39.24676       81.48446
C         62.43869       40.33939       82.00037
O         63.59731       40.37756       81.61078
C         62.05395       37.82581       81.85483
C         62.53682       37.75232       83.33365
C         60.97943       36.75794       81.56212
C         63.11487       36.39485       83.73001
H         61.64993       38.55069       79.49789
H         60.53044       39.36071       81.98913
H         62.94322       37.62229       81.21718
H         61.71967       38.01234       84.03577
H         63.36008       38.48460       83.47641
H         60.09863       36.90227       82.22238
H         60.63483       36.80220       80.50957
H         61.38168       35.73705       81.71804
H         63.91385       36.09152       83.02028
H         63.55287       36.46669       84.74803
H         62.32281       35.61991       83.75787
N         61.98012       41.25076       82.90811
C         62.76567       42.31765       83.51128
C         62.64408       42.36735       85.05221
O         63.15298       43.32175       85.62381
C         62.33819       43.63586       82.83889
C         60.86494       43.90429       82.94786
O         60.17223       43.92017       81.94326
O         60.30251       44.12408       84.14775
H         60.98338       41.25116       83.13617
H         63.84749       42.19855       83.27760
H         62.60071       43.54988       81.76005
H         62.90682       44.49451       83.25342
N         62.07454       41.36294       85.79886
C         62.07887       41.34354       87.27083
C         60.74160       40.82617       87.84913
O         60.75927       39.82243       88.54942
C         63.24241       40.42976       87.73318
C         64.59525       40.95248       87.31874
C         65.23768       40.43411       86.18221
C         65.23458       41.95142       88.07469
C         66.49526       40.91264       85.80357
C         66.50049       42.41577       87.70101
C         67.12860       41.89884       86.56460
H         61.76427       40.50859       85.32142
H         62.26324       42.35828       87.68760
H         63.08045       39.41873       87.29764
H         63.24978       40.30386       88.83944
H         64.75909       39.66914       85.58371
H         64.76200       42.35741       88.96084
H         66.98017       40.51594       84.92136
H         66.99648       43.17471       88.29299
H         68.10656       42.26108       86.27438
N         59.53844       41.45027       87.64306
C         58.25783       40.99074       88.19514
C         57.88629       39.55096       87.87654
O         57.03785       38.98552       88.55167
C         57.23784       41.88814       87.48100
C         58.00427       43.17752       87.33852
C         59.38178       42.67908       86.90184
H         58.28515       41.15093       89.29573
H         57.07581       41.51303       86.44023
H         56.24859       41.95774       87.98129
H         57.54831       43.93143       86.66696
H         58.08786       43.61674       88.35791
H         59.42724       42.43254       85.82076
H         60.13402       43.45106       87.16999
N         58.39170       38.95496       86.76890
C         58.00793       37.63406       86.29735
C         58.73992       36.58786       87.10854
O         58.15729       35.56557       87.44038
C         58.21509       37.43346       84.76720
C         57.60893       38.57223       83.90597
C         58.52125       39.75820       83.78592
O         58.15096       40.77257       83.22419
O         59.79026       39.67194       84.20676
H         59.06698       39.49288       86.24423
H         56.90817       37.52575       86.43591
H         57.68185       36.49343       84.50388
H         59.28068       37.28054       84.49480
H         56.62250       38.87240       84.32188
H         57.45696       38.22057       82.86471
N         60.01219       36.83074       87.53763
C         60.71935       35.94887       88.43639
H         61.70260       36.39672       88.70063
H         60.13562       35.82719       89.37440
H         60.88446       34.96225       87.95992
H         60.48869       37.69930       87.25614
Ca        57.97522       42.21616       80.74549
O         58.52214       43.34602       78.32167
H         58.20385       44.14745       77.84159
H         59.34513       43.63676       78.79127
O         57.17060       44.30485       84.15461
H         57.78667       43.53281       84.20560
H         56.97161       44.38345       83.19173
O         55.72843       42.03555       83.05741
H         55.19865       41.78233       82.26518
H         55.07739       42.44434       83.67898
O         56.22134       39.83854       80.63822
H         55.42637       40.03914       80.08373
H         56.03672       38.94621       81.02318

Ca 1.0



