%chk=apoCaM-CA-Ng.loop2.water4.frame1065.chk
%nprocshared=20
%mem=10GB
%nosave
#b3lyp/svp scf=(tight,noincore,xqc) Test 
#IOP(5/87=12) Density=Current Pop=(MK,readradii) iop(6/33=2) iop(6/42=6)

apoCaM-CA-Ng.loop2.water4.frame1065 

   -2  1 
C         29.61087       59.87632       50.87032
C         29.33675       61.29361       51.31678
O         28.26154       61.78168       51.00229
H         30.59271       59.47501       51.17814
H         28.83080       59.20415       51.28279
H         29.57030       59.83136       49.76117
N         30.22488       62.06014       52.01884
C         31.55955       61.62885       52.42211
C         32.48672       62.83666       52.49769
O         32.42112       63.64377       51.58048
C         31.46426       60.72311       53.67952
C         30.83588       61.40673       54.87179
O         29.76562       61.01445       55.30879
O         31.46271       62.41973       55.49378
H         29.94914       63.03427       52.22166
H         32.00470       61.05396       51.58408
H         32.46011       60.32480       53.96241
H         30.83066       59.84805       53.42664
N         33.39668       63.02503       53.50247
C         34.29938       64.17060       53.58172
C         33.57691       65.49610       53.80290
O         34.26116       66.51064       53.81936
C         35.21970       64.22815       52.34626
H         33.50058       62.31587       54.23855
H         34.96827       64.02781       54.45935
H         35.97341       65.03543       52.46475
H         35.76366       63.26612       52.23633
H         34.66558       64.43176       51.40869
N         32.22395       65.58123       54.01121
C         31.53097       66.85667       54.17923
C         30.89274       67.03990       55.57686
O         31.36150       66.15732       56.55145
C         30.48684       67.03600       53.04822
C         29.31541       66.05869       52.91465
O         28.58957       66.19224       51.94265
O         29.02190       65.05445       53.77838
H         31.66119       64.72482       54.03748
H         32.26505       67.68388       54.06882
H         31.05543       66.97890       52.09419
H         30.05932       68.05893       53.11315
N         30.94635       68.43160       56.04294
C         30.14045       68.68059       57.24788
C         28.63605       68.68751       57.03137
O         27.93716       69.00513       57.98331
H         30.66193       69.09965       55.28971
H         30.42144       69.68702       57.62473
H         30.39895       67.95501       58.05074
N         28.05460       68.33582       55.84607
C         26.61461       68.34756       55.62551
C         26.07442       66.93276       55.57474
O         26.82973       65.97351       55.65278
C         26.29235       69.07312       54.29482
C         26.63619       70.54020       54.26746
N         26.40823       71.25258       53.13934
O         27.10318       71.09569       55.25079
H         28.63218       68.01039       55.06388
H         26.08649       68.84979       56.46589
H         25.20725       69.00398       54.07459
H         26.83899       68.56268       53.47053
H         26.01503       70.79671       52.30205
H         26.62196       72.25965       53.09892
N         24.73115       66.75207       55.46577
C         24.06933       65.46603       55.39101
C         23.07707       65.31550       56.51911
O         23.13405       66.08363       57.46981
H         24.12122       67.58255       55.42759
H         24.77816       64.61106       55.40601
H         23.52320       65.44919       54.43391
N         22.10491       64.36206       56.50503
C         21.82295       63.48867       55.37117
C         20.91132       64.22428       54.39346
O         19.92737       64.81182       54.82242
C         21.19166       62.16976       55.87108
C         20.96366       61.18648       54.71872
O         22.05728       61.55697       56.79477
H         21.44371       64.34686       57.29849
H         22.77173       63.19247       54.87027
H         20.20246       62.37280       56.34630
H         21.79358       61.86716       57.70016
H         20.26264       61.60760       53.96859
H         21.92813       60.95059       54.21771
H         20.53090       60.24219       55.11055
N         21.17326       64.20694       53.05457
C         20.40335       64.95043       52.05537
C         19.43492       63.99318       51.36525
O         19.91706       63.00436       50.82934
C         21.39061       65.58940       51.02692
C         22.53380       66.39606       51.69164
C         20.65935       66.44391       49.98265
C         22.07462       67.49185       52.65013
H         21.95109       63.61705       52.72039
H         19.84693       65.77144       52.54453
H         21.89429       64.77010       50.46580
H         23.16689       66.84653       50.89613
H         23.18639       65.70028       52.25313
H         21.38246       66.86329       49.25198
H         19.95776       65.80901       49.40656
H         20.10537       67.27995       50.45749
H         21.52336       67.06681       53.51265
H         22.96321       68.02535       53.04572
H         21.42374       68.21195       52.12986
N         18.07010       64.14381       51.33449
C         17.30072       65.25844       51.89983
C         17.29424       66.48971       50.98712
O         17.63790       66.38867       49.82114
C         15.84966       64.83675       52.26880
C         14.99212       64.34217       51.12451
O         13.98505       64.95493       50.80972
O         15.27208       63.18281       50.49820
H         17.55300       63.36904       50.90254
H         17.75622       65.53491       52.87195
H         15.34403       65.71271       52.73242
H         15.88335       64.03627       53.03902
N         16.91907       67.70363       51.49319
C         16.91180       68.96780       50.74108
C         16.56219       70.10882       51.70274
O         15.55166       69.97187       52.37792
C         15.86226       68.96662       49.59656
C         15.94944       70.26550       48.81574
C         15.11500       71.35307       49.13695
C         16.91548       70.42285       47.80437
C         15.25518       72.57473       48.46888
C         17.04407       71.64430       47.13196
C         16.21906       72.72064       47.46857
H         16.66939       67.72935       52.49315
H         17.91043       69.12400       50.28767
H         14.84506       68.84790       50.03108
H         16.00564       68.11926       48.89380
H         14.37680       71.26613       49.92389
H         17.57497       69.60473       47.54472
H         14.62480       73.41381       48.73554
H         17.79216       71.76167       46.35829
H         16.33033       73.66967       46.95860
N         17.27155       71.28457       51.80114
C         18.36785       71.71942       50.93872
C         19.66996       70.97598       51.12632
O         19.71808       70.04731       51.92016
C         18.54913       73.20186       51.30082
C         17.15724       73.59731       51.75007
C         16.80144       72.39518       52.60667
H         18.02934       71.65840       49.88798
H         19.19565       73.28656       52.20298
H         18.98451       73.82505       50.49048
H         17.10434       74.57069       52.28183
H         16.48201       73.62280       50.86601
H         17.39936       72.42361       53.54648
H         15.72024       72.36531       52.85842
N         20.77897       71.35685       50.42295
C         22.08492       70.71978       50.56662
C         23.06105       71.17887       49.47762
O         24.12425       71.68876       49.79646
C         22.64746       70.90544       52.01641
C         23.08908       72.31253       52.49338
C         22.04735       73.38835       52.39921
O         21.69752       73.81349       51.31098
O         21.56358       73.95885       53.51878
H         20.67875       72.12927       49.74648
H         21.94624       69.63069       50.39997
H         23.53678       70.24754       52.12036
H         21.90372       70.53258       52.74687
H         23.99049       72.66496       51.95668
H         23.38455       72.20310       53.56002
N         22.81409       71.00236       48.14691
C         21.62559       70.37566       47.60790
H         20.72051       70.96629       47.84661
H         21.70294       70.32615       46.50084
H         21.52300       69.34306       48.00028
H         23.53012       71.31532       47.47227
Ca        29.91701       64.65708       55.79445
O         27.98108       65.17828       58.60567
H         27.00255       65.27708       58.71926
H         28.28019       66.05230       58.25141
O         26.95205       62.42622       57.72384
H         27.29395       61.54588       58.02097
H         26.38928       62.73994       58.47581
O         30.35453       63.05165       58.39303
H         30.15898       63.50882       59.24907
H         30.91423       62.27568       58.64713
O         26.90594       63.00031       54.47675
H         26.08387       62.53016       54.76549
H         26.60940       63.58436       53.73394

Ca 1.0



