%chk=apoCaM-CA-Ng.loop3.water6.frame372.chk
%nprocshared=20
%mem=10GB
%nosave
#b3lyp/svp scf=(tight,noincore,xqc) Test 
#IOP(5/87=12) Density=Current Pop=(MK,readradii) iop(6/33=2) iop(6/42=6)

apoCaM-CA-Ng.loop3.water6.frame372 

   0  1 
C         34.49014      111.88546       21.54197
C         35.27554      112.99031       20.90453
O         36.03570      113.65139       21.59021
H         33.40486      112.08300       21.41816
H         34.74594      110.92121       21.05497
H         34.72152      111.81083       22.62616
N         35.12145      113.25477       19.57695
C         35.85393      114.27377       18.82677
C         35.57597      115.70740       19.29923
O         36.19231      116.62377       18.77276
C         37.36691      113.94949       18.81846
C         38.05843      114.53684       17.61715
O         39.05329      115.42742       17.76576
O         37.73633      114.17943       16.49428
H         34.45358      112.67450       19.04612
H         35.50009      114.19499       17.77442
H         37.51734      112.84994       18.74950
H         37.83658      114.31605       19.75351
N         34.63059      115.98736       20.24740
C         34.31722      117.34781       20.68685
C         35.36307      117.89182       21.65779
O         35.34496      119.08219       21.93938
C         32.96066      117.38120       21.43045
C         31.79062      116.80371       20.61456
C         30.50200      116.82222       21.44425
C         29.36552      116.08977       20.72063
N         28.14897      116.08881       21.53182
H         34.07056      115.21740       20.63008
H         34.23789      117.99750       19.78679
H         32.72128      118.43157       21.70955
H         33.05829      116.78494       22.36630
H         32.00141      115.74826       20.34896
H         31.65108      117.37968       19.67420
H         30.21072      117.87473       21.65364
H         30.68366      116.30302       22.41132
H         29.67355      115.03631       20.53110
H         29.16106      116.57741       19.74231
H         27.82114      117.06962       21.68641
H         27.40342      115.55420       21.03059
H         28.33077      115.62829       22.45367
N         36.21040      117.05000       22.31457
C         37.10678      117.46887       23.38744
C         38.20237      118.34908       22.82563
O         38.77441      117.98494       21.80856
C         37.71383      116.21521       24.05556
C         38.24834      116.44694       25.44396
O         39.25735      117.29845       25.68667
O         37.76135      115.83252       26.38056
H         36.16016      116.04657       22.10338
H         36.50572      117.98738       24.16822
H         38.50357      115.80152       23.40464
H         36.90888      115.45343       24.16886
N         38.57409      119.50273       23.44564
C         39.62880      120.37977       22.94991
C         41.02926      119.77323       22.90884
O         41.93646      120.48810       22.50790
H         38.07544      119.78765       24.30129
H         39.67612      121.27654       23.60432
H         39.35875      120.71947       21.92598
N         41.29247      118.48065       23.26224
C         42.60652      117.85588       23.16136
C         42.59997      116.81043       22.05439
O         43.45298      115.93276       22.06439
C         42.96222      117.20021       24.51588
C         43.06663      118.20207       25.63550
N         44.00114      119.17930       25.60787
O         42.31296      118.11800       26.59098
H         40.53308      117.86987       23.58060
H         43.40218      118.58598       22.90007
H         43.93953      116.67489       24.44549
H         42.18533      116.44130       24.75969
H         44.66055      119.25820       24.82088
H         44.07300      119.85275       26.38493
N         41.70193      116.86870       21.02459
C         41.66999      115.86939       19.97126
C         41.24711      114.50683       20.48339
O         41.41672      113.53839       19.75328
H         41.04226      117.65321       20.95490
H         42.68428      115.80809       19.52271
H         40.96843      116.18012       19.17172
N         40.66659      114.35125       21.70799
C         40.32149      113.06510       22.29435
C         40.94850      112.96577       23.66356
O         40.82303      113.88684       24.46096
C         38.80106      112.90004       22.40893
C         38.38729      111.56887       22.99620
C         38.69759      110.36791       22.33525
C         37.67576      111.51891       24.20773
C         38.30577      109.14046       22.87777
C         37.28746      110.29023       24.74956
C         37.60109      109.09604       24.08512
O         37.23309      107.90396       24.59611
H         40.44758      115.18945       22.26743
H         40.67846      112.23295       21.64912
H         38.36944      112.96809       21.39738
H         38.38898      113.71137       23.02817
H         39.23925      110.38001       21.39839
H         37.42294      112.42978       24.73655
H         38.55202      108.22255       22.35937
H         36.74297      110.26792       25.68516
H         36.74721      107.82930       25.42982
N         41.57365      111.82489       24.02718
C         42.17114      111.60262       25.33566
C         43.45780      112.39718       25.43694
O         43.66126      113.07022       26.43620
C         42.36646      110.07304       25.54818
C         40.95984      109.40670       25.59418
C         43.13760      109.76820       26.84514
C         40.98397      107.88344       25.53567
H         41.58458      111.05065       23.34296
H         41.47854      111.93361       26.14564
H         42.95222      109.67176       24.69104
H         40.35703      109.72988       24.72457
H         40.41752      109.73798       26.50847
H         44.14404      110.21954       26.81073
H         42.59878      110.16790       27.73038
H         43.29127      108.67890       26.97319
H         41.51944      107.44446       26.39877
H         39.93913      107.50644       25.55314
H         41.46025      107.55429       24.58817
N         44.36079      112.39351       24.41624
C         45.61692      113.12770       24.49483
C         46.56454      112.48037       25.48821
O         47.39476      113.18318       26.04783
C         46.29402      113.22115       23.11824
O         46.60351      111.94385       22.63216
H         44.13204      111.88005       23.55202
H         45.39977      114.17608       24.80421
H         47.22576      113.82474       23.21405
H         45.60167      113.73388       22.41266
H         47.07168      112.08631       21.76885
N         46.53212      111.13008       25.71165
C         47.47366      110.41121       26.56323
C         47.45388      110.87997       28.01541
O         48.42578      110.64380       28.71928
C         48.88339      110.49315       25.95649
H         45.82845      110.55999       25.21893
H         47.20443      109.33124       26.55966
H         49.26817      111.53289       25.95153
H         49.58913      109.85966       26.53430
H         48.86281      110.11520       24.91153
N         46.36310      111.50074       28.55127
C         46.32329      112.02233       29.91227
C         45.33600      111.25743       30.76430
O         44.24930      110.94812       30.29703
C         45.93050      113.49912       29.87793
H         45.51971      111.62557       27.97464
H         47.32319      111.96778       30.39564
H         44.91900      113.62834       29.43569
H         45.92381      113.91144       30.91050
H         46.66494      114.07298       29.27489
N         45.64460      110.97934       32.06802
C         44.75344      110.31203       33.01399
C         44.54277      108.83987       32.68681
O         43.73781      108.20614       33.35680
C         43.41098      111.07025       33.17268
C         43.62444      112.54337       33.55665
C         42.31576      113.23310       33.81340
O         41.47751      113.31749       32.92983
O         42.06574      113.77244       35.02203
H         46.55213      111.30182       32.43697
H         45.23761      110.32817       34.01672
H         42.82540      110.57843       33.98115
H         42.80633      111.01334       32.24406
H         44.15382      113.07864       32.73955
H         44.24731      112.59859       34.47564
N         45.26893      108.20070       31.72488
C         45.09223      106.79301       31.44324
H         44.06142      106.60889       31.07489
H         45.81534      106.46912       30.66476
H         45.27229      106.19423       32.36217
H         45.99278      108.70225       31.19180
Ca        39.89057      117.44066       27.85403
O         37.27701      117.92959       29.38522
H         37.43703      118.83036       29.00645
H         36.76719      117.45273       28.68302
O         41.51280      115.09152       27.02732
H         40.62635      114.67364       26.89025
H         41.93541      114.54625       27.73608
O         40.47103      119.36805       30.07803
H         41.05225      119.21393       30.86441
H         40.80753      120.20949       29.67922
O         42.06212      116.45391       29.86024
H         42.97038      116.09286       29.70213
H         41.67646      115.86351       30.55524
O         39.09255      114.86166       29.35076
H         38.59840      114.52086       30.13756
H         39.43376      114.04787       28.90239
O         39.27508      120.13057       27.08727
H         38.34295      120.12177       26.75416
H         39.60054      121.04739       26.90855

Ca 1.0



