%chk=apoCaM-CA-Ng.loop3.water4.frame189.chk
%nprocshared=20
%mem=10GB
%nosave
#b3lyp/svp scf=(tight,noincore,xqc) Test 
#IOP(5/87=12) Density=Current Pop=(MK,readradii) iop(6/33=2) iop(6/42=6)

apoCaM-CA-Ng.loop3.water4.frame189 

   0  1 
C         70.59713       27.56293        9.08393
C         69.36490       26.93080        8.50638
O         68.49557       27.63970        8.02460
H         71.49293       27.19812        8.53834
H         70.55302       28.66956        9.00247
H         70.69039       27.28665       10.15584
N         69.23289       25.57634        8.53144
C         68.08975       24.82656        8.01676
C         66.81463       25.17649        8.77616
O         65.78894       25.44612        8.16440
C         67.93203       24.99977        6.48492
C         69.15204       24.60391        5.69315
O         69.12421       24.68295        4.47609
O         70.27143       24.15931        6.29752
H         69.99721       25.02671        8.95508
H         68.28653       23.74907        8.21592
H         67.68867       26.05667        6.24576
H         67.08595       24.36683        6.13989
N         66.82087       25.18536       10.14034
C         65.64185       25.45895       10.96923
C         65.05438       26.86053       10.78599
O         64.04629       27.14062       11.42140
C         65.98978       25.27982       12.47127
C         66.46247       23.86362       12.86658
C         65.43327       22.74432       12.62754
C         64.15542       22.91266       13.46597
N         63.23408       21.80041       13.23896
H         67.71311       24.96399       10.60553
H         64.84341       24.73794       10.69460
H         65.11064       25.53866       13.09729
H         66.79315       26.00333       12.73409
H         66.72794       23.87437       13.94615
H         67.38722       23.60695       12.31149
H         65.91167       21.78225       12.91265
H         65.17812       22.68100       11.54942
H         63.63807       23.85894       13.20127
H         64.42757       22.94854       14.54459
H         62.93787       21.78183       12.23595
H         63.69192       20.89412       13.48959
H         62.38777       21.92951       13.83932
N         65.60353       27.79245        9.95577
C         65.06761       29.13872        9.79758
C         63.61521       29.08968        9.33983
O         63.31890       28.45216        8.33870
C         65.94035       29.93274        8.80204
C         65.62651       31.40075        8.81967
O         66.58872       32.28421        9.14704
O         64.51326       31.80415        8.52977
H         66.45106       27.55913        9.43105
H         65.14115       29.65032       10.78317
H         65.82701       29.52299        7.77415
H         67.00725       29.82673        9.09684
N         62.65766       29.74972       10.04967
C         61.23886       29.72977        9.73422
C         60.93259       30.22153        8.33720
O         60.33509       29.47127        7.57790
H         62.94679       30.28440       10.87992
H         60.69910       30.37301       10.46400
H         60.85738       28.69229        9.85445
N         61.28934       31.47350        7.92633
C         60.96757       31.97383        6.58802
C         61.99850       31.56332        5.54095
O         61.82674       31.91600        4.38205
C         60.71980       33.49879        6.59054
C         61.96571       34.33500        6.74940
N         62.34365       35.19022        5.76856
O         62.63165       34.25188        7.76752
H         61.78560       32.08262        8.59083
H         59.98812       31.53972        6.28582
H         59.98964       33.75437        7.38915
H         60.24403       33.76109        5.62021
H         61.79458       35.28050        4.90147
H         63.18849       35.76913        5.86920
N         63.07621       30.79319        5.86216
C         64.05030       30.33861        4.89167
C         64.90454       31.46383        4.36974
O         64.94434       31.66976        3.16537
H         63.20060       30.46266        6.82464
H         63.53333       29.80130        4.06637
H         64.73738       29.61469        5.38271
N         65.67803       32.18592        5.22987
C         66.67684       33.15407        4.79544
C         66.45761       34.54183        5.37850
O         65.60449       34.74139        6.23021
C         68.06608       32.64880        5.26197
C         68.45237       31.33154        4.63919
C         68.64557       31.24623        3.25159
C         68.65141       30.18768        5.43308
C         69.03356       30.04031        2.66489
C         69.03963       28.98009        4.84203
C         69.23440       28.90518        3.45485
O         69.61955       27.75372        2.87032
H         65.61791       31.97815        6.23413
H         66.66208       33.26058        3.68978
H         68.04972       32.55931        6.37248
H         68.86578       33.37507        5.00695
H         68.50691       32.11775        2.62476
H         68.51194       30.22894        6.50676
H         69.18566       29.99091        1.59438
H         69.19492       28.10539        5.46022
H         69.78717       26.94986        3.38022
N         67.28822       35.54235        4.96666
C         67.35725       36.88213        5.54280
C         66.08875       37.67833        5.25436
O         65.51238       38.19490        6.19889
C         68.64848       37.62061        5.04949
C         69.96126       36.80931        5.30271
C         68.80067       39.00886        5.70239
C         70.29607       36.54451        6.77616
H         67.95885       35.30260        4.22455
H         67.46794       36.78696        6.64486
H         68.55990       37.76281        3.94926
H         70.81337       37.36325        4.85344
H         69.93204       35.83021        4.78741
H         68.86516       38.93738        6.80610
H         69.70821       39.51716        5.31243
H         67.94738       39.65938        5.49204
H         70.46178       37.48981        7.33109
H         69.49649       35.95886        7.26953
H         71.23644       35.95836        6.83870
N         65.58096       37.82897        3.99207
C         64.34118       38.57871        3.75440
C         64.48810       40.06570        4.05696
O         63.47347       40.73168        4.20199
C         63.82232       38.39442        2.32391
O         63.58407       37.03529        2.08246
H         66.05401       37.35979        3.20477
H         63.56845       38.16409        4.44247
H         64.57162       38.78291        1.59963
H         62.86749       38.96058        2.21512
H         63.12201       36.98791        1.20557
N         65.71711       40.64360        4.19556
C         65.94368       42.01502        4.63380
C         65.30403       42.22232        5.99308
O         64.45874       43.09740        6.14341
C         65.47262       43.02634        3.58009
H         66.54795       40.07519        4.00922
H         67.04081       42.16943        4.74799
H         66.00186       42.84153        2.62151
H         64.37950       42.96423        3.40686
H         65.71976       44.05712        3.91644
N         65.66821       41.43042        7.04093
C         65.06387       41.54627        8.36415
C         65.78945       40.72225        9.41513
O         66.69426       39.95933        9.09670
C         63.58880       41.10927        8.31348
H         66.41639       40.74031        6.87934
H         65.14335       42.60854        8.68587
H         63.00635       41.71970        7.59593
H         63.52205       40.04531        7.99931
H         63.10446       41.21471        9.30613
N         65.45243       40.88061       10.72658
C         66.09593       40.20040       11.84222
C         67.59039       40.48707       11.83170
O         68.39115       39.56153       11.86030
C         65.80461       38.68703       11.81847
C         64.30635       38.35178       11.78752
C         64.17149       36.86554       11.69119
O         63.68938       36.32492       10.56346
O         64.61555       36.14395       12.56921
H         64.71536       41.56323       10.96442
H         65.67017       40.61178       12.78448
H         66.26228       38.22087       12.71993
H         66.28046       38.23669       10.91897
H         63.84816       38.80900       10.88253
H         63.78072       38.73443       12.68747
N         68.03052       41.77254       11.74325
C         69.43284       42.12936       11.66665
H         70.10194       41.24616       11.74211
H         69.62848       42.62838       10.69404
H         69.68040       42.82962       12.48984
H         67.34111       42.53713       11.69094
Ca        64.53778       34.34973        9.91155
O         67.48345       35.44065        9.20941
H         67.85015       36.35910        9.26097
H         68.28112       34.85438        9.18402
O         64.24427       36.75197        8.00721
H         63.64524       37.53105        8.12704
H         65.09079       37.01465        8.44977
O         62.55322       32.75568       11.07542
H         63.39749       32.55819       11.55495
H         62.23400       33.60448       11.46981
O         66.20651       33.17365       12.10847
H         65.63999       33.76135       12.66789
H         67.01681       33.71205       11.92480

Ca 1.0



