%chk=apoCaM-CA-Ng.loop4.water5.frame642.chk
%nprocshared=20
%mem=10GB
%nosave
#b3lyp/svp scf=(tight,noincore,xqc) Test 
#IOP(5/87=12) Density=Current Pop=(MK,readradii) iop(6/33=2) iop(6/42=6)

apoCaM-CA-Ng.loop4.water5.frame642 

   -3  1 
C         63.98350       62.96648        4.23274
C         63.84764       64.09218        3.25041
O         64.25223       63.94404        2.10641
H         64.59200       63.29590        5.10070
H         62.97479       62.66709        4.59004
H         64.46908       62.08449        3.76349
N         63.25023       65.25386        3.63809
C         63.01099       66.39665        2.76189
C         62.11269       66.02727        1.59131
O         62.24497       66.61178        0.52336
C         64.32603       67.07471        2.31112
C         65.07390       67.65140        3.47807
O         65.26287       68.85540        3.54151
O         65.52845       66.86082        4.46629
H         62.90935       65.32546        4.60954
H         62.43843       67.15370        3.34351
H         64.08233       67.91389        1.62237
H         64.97647       66.36308        1.76090
N         61.13923       65.08157        1.73260
C         60.19894       64.77007        0.65711
C         59.15894       65.90152        0.55708
O         59.13053       66.72025        1.46675
C         59.56398       63.35696        0.86034
C         58.64940       63.29500        2.11280
C         60.67357       62.28336        0.88625
C         57.90189       61.96907        2.25281
H         61.07413       64.57578        2.62546
H         60.79453       64.71847       -0.27562
H         58.93907       63.12618       -0.01794
H         57.87825       64.09012        2.03086
H         59.22673       63.46948        3.04331
H         60.24673       61.26111        0.90885
H         61.29117       62.35099       -0.03534
H         61.33996       62.40557        1.76565
H         58.60153       61.12536        2.41789
H         57.22559       62.02192        3.13164
H         57.29122       61.77451        1.34574
N         58.27467       66.08010       -0.47490
C         58.18298       65.29201       -1.69941
C         59.50927       65.31343       -2.41252
O         60.06206       64.24919       -2.65829
C         57.07050       65.85403       -2.61242
C         56.92847       65.06223       -3.88448
O         56.63057       63.74965       -3.83640
O         57.07861       65.60725       -4.96640
H         57.63806       66.88957       -0.39244
H         57.89390       64.25159       -1.45970
H         57.28315       66.91801       -2.85816
H         56.10162       65.81443       -2.06929
N         60.10930       66.49611       -2.73052
C         61.43185       66.53849       -3.31693
C         61.46041       65.92260       -4.68893
O         60.41752       65.65573       -5.27236
H         59.64718       67.38692       -2.49372
H         62.12140       65.98143       -2.64534
H         61.79697       67.58560       -3.39182
N         62.66213       65.65098       -5.25871
C         62.80310       65.06874       -6.58581
C         62.13601       63.70023       -6.75972
O         62.08606       63.26303       -7.89898
C         64.29911       65.06243       -7.01361
C         65.26028       64.44039       -6.02651
O         66.21177       65.20186       -5.45275
O         65.21081       63.25746       -5.75317
H         63.50950       65.89990       -4.72525
H         62.27850       65.74145       -7.30036
H         64.60862       66.12394       -7.12154
H         64.41718       64.57978       -8.00795
N         61.56524       62.97508       -5.74366
C         60.92800       61.67895       -5.98873
C         61.91891       60.61029       -6.43482
O         61.50094       59.53972       -6.85025
H         61.56855       63.33139       -4.77897
H         60.14702       61.81760       -6.76786
H         60.42461       61.31507       -5.06639
N         63.25580       60.83868       -6.33770
C         64.34107       59.95694       -6.73435
C         64.34216       58.67295       -5.94195
O         64.57168       57.60744       -6.49528
C         64.42245       59.77218       -8.26472
C         64.54944       61.13935       -8.95829
C         64.73718       61.07606      -10.44908
N         64.82670       62.22882      -11.15274
O         64.81075       60.00276      -11.02894
H         63.55400       61.71214       -5.90692
H         65.28342       60.46703       -6.42988
H         63.52412       59.23722       -8.64276
H         65.32545       59.16723       -8.49945
H         65.41111       61.69466       -8.52811
H         63.62771       61.71108       -8.77006
H         64.76144       63.14055      -10.67449
H         64.95818       62.21424      -12.17438
N         64.12729       58.73103       -4.59916
C         64.27574       57.58904       -3.70852
C         65.21037       57.90458       -2.54309
O         65.49211       56.97403       -1.79493
C         62.88989       57.09582       -3.20168
C         62.07960       58.19652       -2.49532
C         62.07113       56.50524       -4.35869
H         63.83609       59.63118       -4.19514
H         64.74858       56.74294       -4.25427
H         63.05826       56.26900       -2.47567
H         62.64446       58.61213       -1.63598
H         61.82829       59.02116       -3.19606
H         61.12540       57.77673       -2.11082
H         61.85315       57.27348       -5.12954
H         62.63193       55.67122       -4.83348
H         61.10988       56.09641       -3.98089
N         65.69476       59.16067       -2.27439
C         66.46344       59.45103       -1.06967
C         67.61267       60.41981       -1.35161
O         67.65052       61.04297       -2.40666
C         65.45710       60.00127       -0.02191
C         65.91086       59.98632        1.42101
N         65.29729       59.17319        2.31648
O         66.80555       60.72513        1.79884
H         65.40099       59.96658       -2.84292
H         66.89133       58.50097       -0.67946
H         64.56335       59.34274       -0.07296
H         65.11671       61.02074       -0.30777
H         64.52708       58.55007        2.02996
H         65.59122       59.16009        3.30389
N         68.58462       60.59536       -0.42127
C         69.65214       61.59620       -0.47542
C         70.50842       61.42775        0.76079
O         69.94078       61.38425        1.84422
C         69.06633       63.03349       -0.46164
C         70.15836       64.08406       -0.35704
C         70.24701       64.89725        0.78764
C         71.10776       64.24547       -1.38178
C         71.27035       65.84167        0.91035
C         72.12892       65.19547       -1.25787
C         72.21716       65.99215       -0.11131
O         73.21401       66.89410       -0.00108
H         68.54813       59.96978        0.39806
H         70.27038       61.46124       -1.39080
H         68.38399       63.11917        0.41319
H         68.46327       63.22882       -1.37255
H         69.53302       64.79232        1.59478
H         71.06150       63.63453       -2.27398
H         71.32942       66.45308        1.80153
H         72.85682       65.30940       -2.05163
H         73.31664       67.45583        0.78086
N         71.86780       61.37500        0.69658
C         72.68352       61.20367        1.88962
C         73.41127       62.49874        2.20257
O         74.39592       62.78095        1.53271
C         73.66177       60.02878        1.67929
C         74.50909       59.72800        2.92417
C         75.47181       58.60741        2.65410
O         75.40248       57.46900        3.36942
O         76.32980       58.72751        1.79327
H         72.33645       61.49754       -0.21559
H         72.04220       60.93160        2.74153
H         74.33167       60.26649        0.82178
H         73.08047       59.11804        1.41511
H         73.83511       59.44857        3.76263
H         75.09449       60.62298        3.22460
N         73.00531       63.38564        3.16265
C         71.75822       63.33032        3.93130
C         71.67982       62.15468        4.88784
O         72.59754       61.94389        5.66839
C         71.57772       64.63997        4.72704
C         70.19277       64.72813        5.38830
C         70.02115       66.05155        6.06749
O         69.14899       66.81816        5.69602
O         70.82852       66.40244        7.08638
H         73.59266       64.22708        3.28149
H         70.91405       63.29677        3.21135
H         71.66580       65.49193        4.01836
H         72.37951       64.73771        5.49228
H         70.05810       63.92153        6.14008
H         69.40923       64.61257        4.60577
N         70.55152       61.38988        4.92321
C         70.37357       60.29728        5.85168
H         69.36090       59.85640        5.72139
H         71.13333       59.51100        5.66539
H         70.45958       60.66951        6.89471
H         69.76564       61.61405        4.29602
Ca        66.53359       67.87053        6.21256
O         67.11521       68.19325        9.07789
H         67.65195       68.99811        9.28764
H         66.33869       68.24371        9.68972
O         67.94120       70.13839        4.17720
H         67.24507       70.78422        3.89635
H         68.10507       69.58298        3.37399
O         67.01241       65.18667        7.37064
H         67.01229       65.17254        8.36053
H         66.47834       64.39614        7.10696
O         69.20966       69.63399        6.95920
H         69.21879       70.61238        6.80879
H         70.05243       69.31259        6.55099
O         65.37304       70.60237        6.76711
H         65.17819       70.53245        7.73543
H         64.53828       70.30700        6.32367

Ca 1.0



