%chk=apoCaM-CA-Ng.loop4.water3.frame303.chk
%nprocshared=20
%mem=10GB
%nosave
#b3lyp/svp scf=(tight,noincore,xqc) Test 
#IOP(5/87=12) Density=Current Pop=(MK,readradii) iop(6/33=2) iop(6/42=6)

apoCaM-CA-Ng.loop4.water3.frame303 

   -3  1 
C         90.69014       43.05387       19.49420
C         92.11425       42.70229       19.06435
O         92.84760       43.87068       18.84115
H         90.12826       42.12874       19.74447
H         90.70730       43.68655       20.39650
H         90.16359       43.60544       18.68977
N         92.11927       41.83198       17.87719
C         93.35754       41.03890       17.68601
C         93.97233       40.54612       18.99932
O         94.58922       41.32722       19.70299
C         94.33079       41.71022       16.68630
C         94.82994       43.08021       17.05695
O         95.59919       43.26431       18.14232
O         94.55769       44.03870       16.35065
H         91.34975       41.13356       18.01291
H         93.04460       40.12091       17.13677
H         93.78527       41.80512       15.72020
H         95.20324       41.04519       16.51394
N         93.73814       39.26278       19.41711
C         94.14291       38.66768       20.69582
C         95.60788       38.22928       20.68667
O         95.83143       37.02944       20.78518
C         93.69522       39.51506       21.92737
C         94.05824       38.85765       23.28831
C         92.18174       39.81028       21.85928
C         93.46787       37.46741       23.53552
H         93.14193       38.67089       18.81858
H         93.56856       37.71664       20.77121
H         94.21974       40.48993       21.91017
H         93.70113       39.51434       24.11017
H         95.16339       38.78591       23.37278
H         91.92785       40.37548       20.93932
H         91.58672       38.87370       21.85439
H         91.86590       40.43002       22.72393
H         93.84506       36.73449       22.79532
H         93.77818       37.11900       24.54317
H         92.35985       37.48945       23.50872
N         96.65492       39.08977       20.52150
C         98.02532       38.59865       20.36924
C         98.57734       37.97155       21.65492
O         98.88509       36.78890       21.59836
C         98.96744       39.66329       19.75887
C         98.57451       40.08299       18.36151
O         97.58154       39.62957       17.81267
O         99.34045       40.97357       17.70371
H         96.47543       40.09417       20.40829
H         98.01012       37.78951       19.60071
H         99.98920       39.23000       19.69278
H         99.01180       40.57544       20.37202
N         98.75290       38.61967       22.84843
C         98.40817       40.01145       23.10041
C         98.68341       40.46358       24.53423
O         99.17902       39.66668       25.31839
H         99.13871       38.05459       23.62019
H         97.33054       40.11623       22.89181
H         99.01130       40.64966       22.44837
N         98.38197       41.71843       25.00471
C         97.77320       42.82850       24.26918
C         96.45292       42.37786       23.66607
O         96.33938       42.31980       22.44934
C         98.75989       43.44822       23.25295
C         98.27222       44.79363       22.76861
O         98.93912       45.79414       22.97813
O         97.09705       44.91202       22.12296
H         98.57443       41.89793       26.00332
H         97.58450       43.65209       24.99231
H         98.93610       42.78878       22.38534
H         99.73500       43.60646       23.76476
N         95.41173       41.95604       24.43244
C         95.30740       42.10878       25.86987
C         95.47367       40.81954       26.61605
O         95.90740       39.82237       26.05518
H         94.59377       41.56069       23.95394
H         94.30976       42.53673       26.08742
H         96.04531       42.82103       26.28437
N         95.15928       40.80511       27.93836
C         95.40195       39.68159       28.82839
C         94.11510       39.00556       29.27986
O         94.21131       37.99093       29.95333
C         96.30428       40.11986       30.01713
C         95.69454       41.09413       31.05379
C         95.33686       42.45441       30.51657
N         96.26208       43.26469       29.95282
O         94.18122       42.82942       30.58572
H         94.71767       41.65113       28.31397
H         95.96830       38.89988       28.27564
H         97.24240       40.55731       29.61165
H         96.58978       39.20434       30.57887
H         96.43452       41.24957       31.86772
H         94.79357       40.62223       31.50447
H         97.24657       42.97584       29.87745
H         95.98500       44.18718       29.58220
N         92.88186       39.47996       28.92313
C         91.63066       38.79423       29.24631
C         90.82151       39.60785       30.26296
O         89.74231       39.16861       30.63915
C         90.85813       38.49949       27.91798
C         89.63200       37.58862       28.13003
C         91.77369       37.81755       26.88163
H         92.80283       40.35029       28.37976
H         91.84737       37.81615       29.72936
H         90.51837       39.46251       27.47700
H         88.86553       38.05059       28.77739
H         89.13265       37.38738       27.15832
H         89.94170       36.61615       28.57179
H         92.15701       36.84878       27.26764
H         91.21479       37.63102       25.93939
H         92.63656       38.46531       26.61986
N         91.30396       40.76271       30.81213
C         90.64129       41.50691       31.88108
C         90.30254       42.94501       31.48245
O         89.40565       43.50510       32.09281
C         91.59040       41.59329       33.10712
C         91.96939       40.31276       33.82749
N         91.41006       39.10887       33.56121
O         92.81015       40.38646       34.71123
H         92.22468       41.10847       30.51266
H         89.69150       41.01918       32.19503
H         91.14497       42.26194       33.87635
H         92.53452       42.06489       32.75686
H         90.67000       38.99247       32.86495
H         91.70352       38.27398       34.09035
N         91.10239       43.66363       30.63610
C         91.02783       45.11589       30.49783
C         91.04425       45.54938       29.04682
O         91.96401       45.16523       28.34300
C         92.27715       45.73446       31.16563
C         92.33873       45.47454       32.64940
C         91.34267       45.98454       33.49761
C         93.40166       44.74260       33.20406
C         91.40822       45.76392       34.87528
C         93.46216       44.51658       34.58080
C         92.46936       45.02790       35.42158
O         92.54842       44.81229       36.74954
H         91.88087       43.19816       30.16413
H         90.12963       45.53112       31.00089
H         92.27493       46.83568       31.02060
H         93.18867       45.33429       30.66771
H         90.52026       46.56160       33.09426
H         94.18685       44.34623       32.57757
H         90.63606       46.16946       35.51609
H         94.28592       43.94814       34.99375
H         91.88930       45.16120       37.36617
N         90.13988       46.47598       28.59427
C         90.18417       47.15897       27.29670
C         89.63796       46.33117       26.14685
O         88.74319       46.81620       25.46654
C         91.57381       47.75853       26.97005
C         92.05578       48.70920       28.07877
C         93.36235       49.35564       27.72220
O         93.44588       50.69669       27.62840
O         94.35734       48.67415       27.53300
H         89.44150       46.82780       29.26552
H         89.50167       48.03815       27.36982
H         91.48898       48.33759       26.02321
H         92.32755       46.96305       26.79717
H         92.18774       48.15362       29.02905
H         91.29311       49.50187       28.23940
N         90.11701       45.09225       25.84669
C         89.66187       44.32502       24.69320
C         88.17524       43.99230       24.73583
O         87.66909       43.52133       23.72603
C         90.45183       42.99680       24.56761
C         91.98870       43.13635       24.49673
C         92.48201       43.84676       23.27217
O         93.79546       43.92079       23.00302
O         91.69968       44.29642       22.45574
H         90.84919       44.69421       26.43178
H         89.83031       44.95835       23.79741
H         90.11095       42.44771       23.66039
H         90.21410       42.36593       25.45206
H         92.39607       42.10495       24.46639
H         92.39959       43.63022       25.39635
N         87.41484       44.18757       25.85273
C         85.99647       43.89991       25.90913
H         85.59686       43.53010       24.94160
H         85.80959       43.12961       26.68542
H         85.44841       44.82656       26.17951
H         87.84346       44.54275       26.71794
Ca        94.02820       43.99291       20.77711
O         97.81996       43.27668       19.94406
H         98.62355       43.67268       19.52427
H         97.66107       42.43892       19.44499
O         94.12536       47.02361       21.28738
H         93.90046       47.62777       20.53610
H         93.28915       46.52212       21.45822
O         96.63706       46.30542       19.50379
H         97.32015       46.02353       18.84507
H         97.13832       46.84758       20.16378

Ca 1.0



