%chk=apoCaM-CA-Ng.loop4.water4.frame858.chk
%nprocshared=20
%mem=10GB
%nosave
#b3lyp/svp scf=(tight,noincore,xqc) Test 
#IOP(5/87=12) Density=Current Pop=(MK,readradii) iop(6/33=2) iop(6/42=6)

apoCaM-CA-Ng.loop4.water4.frame858 

   -3  1 
C         67.65502       80.14263       76.55276
C         68.18907       81.08380       75.51693
O         69.30597       80.89349       75.05695
H         66.72125       79.67251       76.17696
H         68.38906       79.33835       76.76720
H         67.43673       80.69784       77.48801
N         67.41246       82.11414       75.07335
C         67.80158       83.04244       74.01630
C         68.12315       82.24153       72.76234
O         69.20925       82.35502       72.21037
C         68.95460       83.95340       74.50666
C         69.30133       85.08545       73.57332
O         70.27993       85.94338       73.91876
O         68.70307       85.25166       72.52170
H         66.46558       82.21755       75.47051
H         66.92416       83.69472       73.80489
H         69.86731       83.34762       74.68721
H         68.64945       84.41190       75.47229
N         67.22138       81.31816       72.32836
C         67.51017       80.36080       71.26602
C         67.65392       81.02560       69.90004
O         66.90720       81.95702       69.63458
C         66.45316       79.21117       71.19692
C         64.99526       79.72778       71.01546
C         66.59040       78.30979       72.43875
C         63.98463       78.61792       70.72259
H         66.34456       81.23303       72.85943
H         68.46572       79.89476       71.55215
H         66.71352       78.58276       70.31734
H         64.94986       80.42911       70.15803
H         64.65111       80.26913       71.92090
H         67.63121       77.92579       72.51092
H         66.35419       78.86664       73.36919
H         65.93259       77.42169       72.37052
H         63.92110       77.88730       71.55300
H         62.97615       79.06617       70.59521
H         64.25840       78.09153       69.78427
N         68.50966       80.57809       68.92361
C         69.48578       79.49273       69.04235
C         70.86011       80.05686       68.70536
O         71.51453       79.57991       67.78713
C         69.06376       78.32721       68.11712
C         69.91323       77.08737       68.26617
O         69.66156       76.10431       67.58839
O         70.93133       77.03494       69.14888
H         68.46773       81.05348       68.00735
H         69.53232       79.08006       70.05919
H         69.08379       78.66701       67.05859
H         68.02010       78.03677       68.36380
N         71.33060       81.13931       69.38588
C         72.53212       81.85081       68.98296
C         73.81117       81.34088       69.60958
O         74.84649       81.91270       69.29893
H         70.72818       81.57231       70.10193
H         72.42924       82.91137       69.30064
H         72.61095       81.86219       67.87407
N         73.83247       80.33888       70.53773
C         75.04764       79.95548       71.25566
C         75.36799       78.47824       71.11291
O         76.49178       78.16859       70.73855
C         74.98466       80.41865       72.73032
C         73.86062       79.86661       73.56514
O         72.69827       80.07538       73.25957
O         74.13384       79.21336       74.71034
H         72.94749       79.88601       70.80277
H         75.92770       80.50597       70.85117
H         74.88905       81.52636       72.73409
H         75.95408       80.16825       73.21734
N         74.45420       77.50207       71.38552
C         74.80756       76.09010       71.32817
C         75.69934       75.68429       72.49010
O         76.32938       74.63959       72.41554
H         73.48672       77.75662       71.63109
H         75.29714       75.87662       70.35199
H         73.89302       75.46144       71.38297
N         75.72262       76.42548       73.63753
C         76.49572       76.12410       74.83561
C         76.12053       74.81671       75.52545
O         76.78189       74.49498       76.50312
C         78.01744       76.26249       74.60694
C         78.39480       77.71194       74.24111
C         79.87139       77.96204       74.42504
N         80.64616       78.39074       73.40406
O         80.36966       77.80310       75.53052
H         75.13700       77.26491       73.68821
H         76.25216       76.89799       75.59891
H         78.40506       75.54340       73.85360
H         78.50585       76.03339       75.57927
H         77.87894       78.41549       74.93050
H         78.05863       77.93881       73.20622
H         80.25056       78.54860       72.46713
H         81.64879       78.57651       73.55956
N         75.02443       74.07516       75.17574
C         74.59376       72.91179       75.95884
C         73.34118       73.21753       76.76920
O         73.05684       72.46754       77.69429
C         74.42215       71.64226       75.08542
C         73.29307       71.78403       74.04945
C         75.73892       71.28115       74.38641
H         74.43501       74.38473       74.39315
H         75.36737       72.67849       76.72252
H         74.15517       70.79689       75.75880
H         73.50737       72.59318       73.32121
H         73.17445       70.83418       73.48610
H         72.32626       72.00012       74.55149
H         76.54301       71.13325       75.13828
H         75.62189       70.33688       73.81344
H         76.04839       72.08463       73.68478
N         72.54679       74.29086       76.49059
C         71.39662       74.68301       77.29108
C         71.56436       76.14588       77.66964
O         71.98349       76.93127       76.82968
C         70.10335       74.42149       76.50224
C         68.87792       74.53308       77.38486
N         68.10666       73.44473       77.63023
O         68.58408       75.60584       77.89041
H         72.74355       74.86563       75.66010
H         71.32816       74.05494       78.20891
H         70.15598       73.37793       76.12154
H         70.02245       75.09889       75.62601
H         68.33726       72.52590       77.22330
H         67.27790       73.51330       78.23957
N         71.28710       76.57307       78.92826
C         71.54450       77.93225       79.40516
C         71.09425       78.01797       80.84244
O         69.95264       77.66527       81.10161
C         70.81145       79.04335       78.60408
C         71.35410       80.39599       79.02401
C         70.56116       81.31367       79.72946
C         72.68731       80.73538       78.72340
C         71.09868       82.53925       80.14525
C         73.21935       81.96036       79.13085
C         72.43193       82.86415       79.84822
O         72.96798       84.03570       80.24701
H         70.90619       75.87611       79.58914
H         72.63881       78.10822       79.32909
H         69.71682       78.96310       78.78370
H         70.96957       78.96628       77.51105
H         69.53666       81.07126       79.97170
H         73.31860       80.04834       78.17330
H         70.48192       83.23307       80.70233
H         74.24821       82.20329       78.89381
H         72.46605       84.68734       80.75650
N         71.91120       78.48459       81.82486
C         71.51227       78.48414       83.22379
C         71.28791       79.90864       83.69602
O         72.27172       80.60190       83.91384
C         72.58932       77.71802       84.03139
C         72.30729       77.53523       85.53207
C         72.40196       78.81275       86.31628
O         73.44901       79.44129       86.34286
O         71.34021       79.25915       87.01286
H         72.84264       78.85066       81.57345
H         70.57805       77.91831       83.34225
H         73.58366       78.20093       83.89988
H         72.65789       76.70029       83.58731
H         73.07293       76.84291       85.94543
H         71.30909       77.06722       85.66590
N         70.04734       80.47365       83.84804
C         68.76795       79.88715       83.42877
C         68.37719       78.66028       84.23234
O         68.34614       78.72426       85.45316
C         67.60840       80.90831       83.51907
C         67.84828       82.16086       82.65888
C         66.62808       83.03059       82.61817
O         66.10263       83.29109       81.54801
O         66.11140       83.53384       83.75501
H         70.03275       81.44161       84.20189
H         68.84227       79.62351       82.35177
H         67.42696       81.20733       84.57488
H         66.69110       80.40298       83.13696
H         68.10023       81.85555       81.62257
H         68.68837       82.76033       83.06336
N         68.01793       77.51324       83.58466
C         67.61559       76.29334       84.25160
H         66.57841       76.03582       83.94803
H         68.29015       75.46835       83.93908
H         67.65146       76.38278       85.35629
H         68.00431       77.49888       82.55559
Ca        63.18547       83.07366       81.72107
O         61.61267       85.64601       81.60579
H         60.69231       85.31538       81.76097
H         61.50083       86.42614       81.00675
O         64.27599       86.16827       83.74894
H         64.83142       85.92479       84.53153
H         64.67413       87.01132       83.41559
O         62.57769       83.53183       84.71377
H         63.25453       83.62939       85.42977
H         61.91382       84.24264       84.89935
O         64.80552       85.95681       80.68322
H         64.52409       86.59787       79.98333
H         65.74397       86.20202       80.88300

Ca 1.0



