%chk=apoCaM-CA-Ng.loop4.water6.frame1026.chk
%nprocshared=20
%mem=10GB
%nosave
#b3lyp/svp scf=(tight,noincore,xqc) Test 
#IOP(5/87=12) Density=Current Pop=(MK,readradii) iop(6/33=2) iop(6/42=6)

apoCaM-CA-Ng.loop4.water6.frame1026 

   -3  1 
C         24.23278       71.99737       46.02609
C         24.09402       70.72823       45.23002
O         24.69708       69.73605       45.60963
H         24.66462       72.80239       45.39657
H         23.23456       72.30835       46.40302
H         24.89824       71.84115       46.90155
N         23.29621       70.63694       44.12758
C         22.51544       71.73855       43.57865
C         21.05014       71.46752       43.84234
O         20.43249       72.27187       44.52499
C         22.80762       71.93992       42.07851
C         24.25730       72.26205       41.82097
O         25.13160       71.46127       42.11037
O         24.59706       73.43407       41.25181
H         23.21507       69.71676       43.66985
H         22.76610       72.69722       44.07955
H         22.18587       72.78176       41.70343
H         22.52757       71.03743       41.50248
N         20.43606       70.33795       43.37738
C         19.04914       70.00345       43.70647
C         18.15291       69.95805       42.47573
O         16.96639       69.70555       42.65227
C         18.97110       68.65896       44.50316
C         19.33691       67.42421       43.63643
C         19.83891       68.73726       45.77437
C         19.07466       66.08548       44.33162
H         20.97623       69.67720       42.80198
H         18.61790       70.78679       44.36668
H         17.91230       68.53651       44.82434
H         20.39867       67.47026       43.33566
H         18.71303       67.42213       42.71766
H         20.91653       68.81685       45.51352
H         19.55222       69.62093       46.38186
H         19.69870       67.84314       46.41438
H         19.71913       65.95256       45.22310
H         18.00750       66.01096       44.63214
H         19.29887       65.25533       43.62846
N         18.61624       70.18509       41.21059
C         17.76723       70.05317       40.02741
C         18.50928       70.50608       38.78144
O         19.60588       70.02049       38.53556
C         17.32553       68.58391       39.83975
C         16.37500       68.44851       38.68188
O         16.66504       67.74926       37.72481
O         15.19675       69.10179       38.69756
H         19.60279       70.45588       41.07737
H         16.86196       70.68761       40.16454
H         16.80061       68.20633       40.73922
H         18.22281       67.94590       39.67905
N         17.95650       71.42746       37.94202
C         18.61235       71.92419       36.74215
C         18.82206       70.85944       35.67230
O         19.49480       69.87015       35.91890
H         17.03322       71.82492       38.17864
H         19.59122       72.36638       37.02273
H         17.99077       72.74463       36.31972
N         18.32256       71.04677       34.41734
C         18.56899       70.13046       33.30383
C         17.86488       68.79555       33.53831
O         16.66907       68.82134       33.79468
C         18.05048       70.76811       31.99485
C         18.44638       69.97643       30.77887
O         19.74882       69.81878       30.47237
O         17.59339       69.50256       30.04638
H         17.79092       71.91160       34.23121
H         19.66751       70.01368       33.18894
H         18.49069       71.78230       31.87901
H         16.94424       70.87718       32.04370
N         18.48081       67.57979       33.43179
C         19.87908       67.40576       33.05703
C         20.27775       65.94277       32.86735
O         19.43912       65.07452       33.06173
H         17.89121       66.74871       33.58953
H         20.50378       67.86808       33.84493
H         20.03431       67.91306       32.09395
N         21.53496       65.53960       32.49368
C         22.70096       66.37787       32.21725
C         23.00576       67.20136       33.44575
O         22.90237       68.41962       33.41367
C         22.53350       67.18649       30.90099
C         23.87538       67.56902       30.23702
C         24.75514       68.48171       31.04947
N         24.36057       69.73886       31.35389
O         25.85245       68.08731       31.41571
H         21.69356       64.52140       32.42288
H         23.55660       65.68847       32.03434
H         21.89497       68.07924       31.03189
H         22.03476       66.52174       30.16171
H         23.66969       68.06135       29.26201
H         24.43054       66.62881       30.02062
H         23.44631       70.09462       31.04033
H         24.97606       70.35952       31.90057
N         23.32758       66.56498       34.60516
C         23.40641       67.25557       35.88728
C         22.78284       66.41681       36.99667
O         22.52868       65.23587       36.80922
C         24.86732       67.63822       36.24203
C         25.42834       68.68518       35.27173
C         25.79863       66.41523       36.27737
H         23.44761       65.54035       34.58112
H         22.79566       68.18519       35.83483
H         24.85809       68.10711       37.24726
H         24.78518       69.59135       35.27246
H         26.44865       68.98656       35.58904
H         25.49215       68.28429       34.23954
H         26.82067       66.72427       36.58302
H         25.43549       65.66289       37.00390
H         25.86381       65.93605       35.27769
N         22.49277       66.99484       38.19543
C         21.96733       66.24253       39.33249
C         23.01111       65.30672       39.94227
O         22.64578       64.44388       40.72909
C         21.46466       67.17577       40.46360
C         22.58160       67.81371       41.27949
N         23.41312       68.75466       40.77478
O         22.74101       67.44883       42.43456
H         22.60891       68.00985       38.25990
H         21.09359       65.66232       38.95904
H         20.88213       66.52785       41.15575
H         20.76306       67.94320       40.07402
H         23.31223       69.13425       39.82933
H         24.16717       69.13954       41.36033
N         24.34079       65.54208       39.74996
C         25.41090       64.85845       40.47442
C         26.74227       65.57694       40.27443
O         26.94633       66.20593       39.24692
C         25.52583       63.34491       40.16767
C         25.64773       63.00622       38.69881
C         26.86997       62.57832       38.15473
C         24.51852       63.07027       37.86498
C         26.96029       62.24118       36.79842
C         24.60761       62.72803       36.51446
C         25.83100       62.31404       35.97479
O         25.92968       61.97671       34.67302
H         24.59920       66.33235       39.14509
H         25.18783       64.96609       41.55992
H         24.65040       62.79166       40.56947
H         26.40959       62.96292       40.72491
H         27.75328       62.50931       38.77676
H         23.55926       63.36319       38.26100
H         27.90789       61.91685       36.38800
H         23.72285       62.77834       35.89160
H         25.16789       62.00490       34.07590
N         27.69818       65.53501       41.24627
C         28.94743       66.28735       41.17543
C         29.18940       66.95981       42.52686
O         30.16853       66.63975       43.18776
C         30.07051       65.30795       40.77212
C         31.40102       66.01391       40.46140
C         32.45105       65.01696       40.06499
O         32.28929       64.30646       39.08534
O         33.58244       64.90717       40.78714
H         27.53637       64.94026       42.07449
H         28.89011       67.06734       40.38351
H         29.74724       64.78047       39.84666
H         30.20719       64.54564       41.57120
H         31.76408       66.57642       41.34478
H         31.25526       66.73538       39.62834
N         28.28192       67.84277       43.04249
C         28.37058       68.33813       44.41731
C         27.29034       67.70128       45.28489
O         27.27509       67.97737       46.47704
C         28.27122       69.87935       44.51463
C         29.37311       70.64839       43.77360
C         29.15723       70.64902       42.29309
O         30.00835       70.21356       41.53478
O         28.02315       71.18352       41.80378
H         27.44977       68.08703       42.48300
H         29.34077       68.04354       44.87456
H         28.37867       70.14332       45.59074
H         27.27026       70.23725       44.18623
H         30.37336       70.24764       44.04799
H         29.33137       71.71237       44.09519
N         26.36985       66.82678       44.77624
C         25.34787       66.18737       45.57791
H         24.34821       66.45861       45.17920
H         25.47404       65.08610       45.51459
H         25.39509       66.48461       46.64600
H         26.37403       66.57845       43.77825
Ca        27.64192       71.42929       39.60331
O         30.04112       72.77094       38.50449
H         30.09928       72.07702       37.80046
H         30.52451       72.38193       39.27630
O         24.17648       71.57372       38.44929
H         24.15056       72.45988       38.00828
H         23.54696       71.01761       37.92509
O         26.45288       74.06087       38.53674
H         27.27816       74.49307       38.20158
H         25.89535       74.80883       38.86805
O         28.03725       74.11832       41.38954
H         28.96416       74.46029       41.45355
H         27.69330       74.15448       42.31741
O         26.38851       68.94447       39.04813
H         26.49487       68.69706       40.00066
H         27.28437       68.80259       38.64931
O         26.89654       71.34291       36.77485
H         27.82164       71.50598       36.46243
H         26.32753       71.87576       36.16519

Ca 1.0



