%chk=apoCaM-CA-Ng.loop2.water4.frame1321.chk
%nprocshared=20
%mem=10GB
%nosave
#b3lyp/svp scf=(tight,noincore,xqc) Test 
#IOP(5/87=12) Density=Current Pop=(MK,readradii) iop(6/33=2) iop(6/42=6)

apoCaM-CA-Ng.loop2.water4.frame1321 

   -2  1 
C         59.01640       36.81317      102.07363
C         59.41882       37.91892      101.13651
O         59.98564       37.61858      100.09619
H         57.91334       36.81714      102.20398
H         59.31224       35.82458      101.66175
H         59.51329       36.94409      103.05716
N         59.16259       39.23380      101.39334
C         58.49568       39.73580      102.59222
C         59.37521       40.69380      103.40183
O         58.94192       41.09066      104.47532
C         57.13019       40.34609      102.20752
C         57.20214       41.35565      101.09380
O         56.57731       41.17114      100.06134
O         57.94956       42.46130      101.22051
H         59.44554       39.92217      100.67777
H         58.27060       38.90784      103.29469
H         56.65632       40.80364      103.10255
H         56.46943       39.51748      101.86820
N         60.63012       41.06696      103.00202
C         61.54005       41.85662      103.83967
C         61.07757       43.28288      104.14724
O         61.76738       43.94735      104.90861
C         62.92593       41.91578      103.17970
H         60.99334       40.71323      102.10607
H         61.65555       41.32097      104.80819
H         62.86797       42.44398      102.20349
H         63.65255       42.44517      103.83265
H         63.30892       40.88687      103.00818
N         59.93875       43.82229      103.62554
C         59.48392       45.18709      103.91989
C         58.06351       45.43922      103.41290
O         57.48106       44.56676      102.78729
C         60.47069       46.23308      103.32695
C         60.65367       46.15829      101.82939
O         60.07512       45.32109      101.15624
O         61.48284       47.02922      101.22399
H         59.37337       43.23480      103.00942
H         59.43868       45.31100      105.02397
H         61.47026       46.11295      103.78982
H         60.12371       47.25588      103.58087
N         57.43566       46.62806      103.65282
C         56.10705       46.92814      103.13414
C         56.16521       48.05714      102.13632
O         57.20478       48.68652      101.98941
H         57.92056       47.35842      104.19490
H         55.40824       47.17329      103.96140
H         55.68780       46.05011      102.60054
N         55.08849       48.30172      101.33685
C         55.10845       49.27481      100.25038
C         53.93487       50.24371      100.30328
O         53.84271       51.05932       99.39432
C         55.10271       48.53197       98.89530
C         56.33937       47.68333       98.70744
N         57.22868       47.96966       97.72760
O         56.54203       46.72979       99.44334
H         54.25508       47.70074      101.43696
H         56.03635       49.88868      100.27987
H         55.07429       49.28770       98.08037
H         54.19594       47.89606       98.79994
H         57.08536       48.77025       97.09528
H         58.07395       47.39511       97.60549
N         52.99646       50.23964      101.30037
C         51.85185       51.14402      101.27679
C         52.26416       52.60532      101.30211
O         53.44113       52.88965      101.47654
H         53.06170       49.56847      102.07845
H         51.17986       50.93802      102.13738
H         51.29121       50.94683      100.33699
N         51.38061       53.61762      101.06725
C         49.94814       53.45541      100.82773
C         49.60715       53.62230       99.34648
O         48.42853       53.61642       99.01854
C         49.16464       54.49898      101.66723
C         49.43133       54.37509      103.16830
O         49.50650       55.80043      101.25211
H         51.76563       54.57367      101.00062
H         49.60232       52.44336      101.12685
H         48.07306       54.31334      101.51454
H         48.67165       56.25776      100.96985
H         49.15270       53.36379      103.53050
H         50.50183       54.56404      103.39635
H         48.82284       55.12811      103.71448
N         50.57916       53.75390       98.39457
C         50.32071       53.99682       96.97658
C         50.77728       52.79010       96.15950
O         51.88702       52.32779       96.38425
C         51.04732       55.30836       96.55660
C         50.30822       56.50615       97.21208
C         51.11637       55.46935       95.02268
C         50.98798       57.85708       97.00600
H         51.56900       53.69158       98.67285
H         49.24167       54.14910       96.82443
H         52.09800       55.26102       96.92168
H         50.23569       56.34375       98.30885
H         49.27256       56.56306       96.80680
H         50.10314       55.52720       94.57830
H         51.68904       56.37466       94.74252
H         51.66461       54.61941       94.56343
H         51.04450       58.12844       95.93340
H         50.39109       58.64238       97.51650
H         52.00714       57.84014       97.44446
N         50.00367       52.19918       95.19141
C         48.71523       52.69659       94.70432
C         48.62045       52.62678       93.18413
O         48.69537       51.53950       92.62820
C         47.53854       51.96080       95.37937
C         47.54260       50.46945       95.18629
O         48.54482       49.72201       95.68634
O         46.61517       49.92412       94.61000
H         50.37384       51.34495       94.74542
H         48.57659       53.75907       94.95865
H         46.59016       52.38625       94.97878
H         47.55933       52.16533       96.47138
N         48.37683       53.76153       92.45915
C         48.06560       53.77013       91.03311
C         49.01450       54.67693       90.26170
O         49.21505       55.80646       90.68944
C         46.60207       54.23913       90.86390
C         46.14471       54.19102       89.42162
C         45.32047       53.14186       88.98017
C         46.54535       55.17788       88.50051
C         44.92356       53.07033       87.64165
C         46.14080       55.10569       87.16491
C         45.33460       54.04999       86.73452
H         48.31480       54.66423       92.95522
H         48.10152       52.73980       90.62810
H         46.43192       55.25619       91.28103
H         45.98207       53.53619       91.46329
H         45.00136       52.36769       89.66648
H         47.16915       56.00513       88.81209
H         44.30079       52.25133       87.30684
H         46.45624       55.86674       86.46271
H         45.02783       53.99140       85.69842
N         49.55851       54.30799       89.05746
C         49.31792       53.04305       88.37837
C         50.14052       51.92336       88.98400
O         49.71793       50.77896       88.89400
C         49.70033       53.35265       86.92766
C         50.84921       54.32283       87.09122
C         50.35089       55.20586       88.23644
H         48.24596       52.75229       88.36052
H         49.88949       52.46579       86.28565
H         48.86400       53.93326       86.47225
H         51.72603       53.73533       87.43837
H         51.14347       54.87817       86.17548
H         51.21696       55.64453       88.77732
H         49.68186       56.01351       87.86541
N         51.31361       52.17494       89.63229
C         52.11577       51.12837       90.24921
C         52.60452       50.16775       89.16696
O         53.35263       50.62233       88.31210
C         53.33228       51.74341       90.98162
C         52.91643       52.64989       92.15649
C         54.11501       53.30690       92.77672
O         54.80887       54.06502       92.11681
O         54.41791       53.08316       94.06912
H         51.64485       53.14739       89.69500
H         51.50117       50.63439       91.01793
H         53.93117       52.33080       90.24940
H         53.97458       50.92832       91.38317
H         52.38568       52.03827       92.91818
H         52.23029       53.45541       91.82327
N         52.25374       48.84812       89.07574
C         51.34035       48.11988       89.93732
H         50.50901       47.71862       89.31979
H         51.87630       47.26751       90.40296
H         50.88328       48.71428       90.74144
H         52.65945       48.30170       88.29980
Ca        57.97687       44.02249       99.59336
O         59.05536       41.90379       97.81149
H         58.84308       41.06731       98.29653
H         58.74173       41.74306       96.88642
O         55.78026       43.55235       97.52817
H         54.87571       43.61609       97.92553
H         55.90112       44.40932       97.04712
O         59.39828       45.17704       97.27176
H         60.03140       45.68440       97.83986
H         59.97269       44.67368       96.64283
O         55.15172       44.19756      100.66339
H         54.32230       44.68955      100.44022
H         54.93991       43.71326      101.50039

Ca 1.0



