%chk=apoCaM-CA-Ng.loop2.water4.frame1416.chk
%nprocshared=20
%mem=10GB
%nosave
#b3lyp/svp scf=(tight,noincore,xqc) Test 
#IOP(5/87=12) Density=Current Pop=(MK,readradii) iop(6/33=2) iop(6/42=6)

apoCaM-CA-Ng.loop2.water4.frame1416 

   -2  1 
C         74.61139       90.20905        2.24449
C         73.72785       89.03715        1.89370
O         74.29212       87.98302        1.63951
H         75.29833       90.40582        1.39573
H         74.10093       91.15489        2.47815
H         75.21779       89.94228        3.13568
N         72.36147       89.06345        1.85962
C         71.49403       90.20469        2.15181
C         70.57894       90.57960        0.98840
O         69.92429       91.60720        1.10550
C         70.69771       89.93231        3.45049
C         70.15443       88.50376        3.54479
O         69.29947       88.17728        2.49237
O         69.44962       88.30489        4.73511
H         71.89499       88.17020        1.63453
H         72.06936       91.12555        2.32888
H         69.89941       90.69254        3.59058
H         71.40280       90.03172        4.30363
N         70.47957       89.84658       -0.16186
C         69.65383       90.26885       -1.29609
C         68.21553       90.54715       -0.88434
O         67.65454       91.52944       -1.34904
C         69.71920       89.24588       -2.43512
H         71.00819       88.96729       -0.25052
H         70.07447       91.21740       -1.69888
H         69.31585       88.26295       -2.11432
H         69.13917       89.61029       -3.31067
H         70.77541       89.11412       -2.75839
N         67.59373       89.77824        0.05199
C         66.28469       90.08834        0.62259
C         66.44561       90.30986        2.12696
O         66.80457       89.38767        2.83918
C         65.26535       88.99755        0.22919
C         65.78311       87.58572        0.35185
O         66.16401       87.08829        1.53653
O         65.87800       86.88543       -0.64407
H         68.09709       88.95947        0.42230
H         65.88893       91.03878        0.20255
H         65.02570       89.15336       -0.84626
H         64.32491       89.12751        0.80523
N         66.29262       91.55816        2.66276
C         66.68095       91.88646        4.02937
C         65.79384       91.35878        5.13933
O         66.17696       91.55246        6.28480
H         66.03558       92.34168        2.04363
H         66.70605       92.99250        4.14339
H         67.71771       91.52141        4.19108
N         64.59780       90.73915        4.91717
C         63.73453       90.27949        6.00784
C         63.48001       88.79141        5.90372
O         63.78965       88.09063        6.85749
C         62.40976       91.06036        6.03471
C         62.63421       92.51755        6.36530
N         62.22107       93.49412        5.52621
O         63.18216       92.81912        7.41615
H         64.26680       90.61985        3.94913
H         64.21608       90.45030        6.99841
H         61.76321       90.64021        6.83683
H         61.87753       90.94644        5.06649
H         61.74588       93.26603        4.64177
H         62.36991       94.48534        5.76844
N         62.93777       88.22771        4.78384
C         62.73022       86.79054        4.65641
C         63.73044       86.24408        3.66941
O         64.89778       86.54612        3.86405
H         62.71151       88.82524        3.97423
H         61.67112       86.59894        4.41308
H         62.93719       86.27421        5.61667
N         63.44604       85.43627        2.60583
C         62.15547       84.85424        2.24397
C         62.23692       83.32852        2.28364
O         61.35669       82.71882        2.87091
C         61.70127       85.33872        0.84899
C         61.45554       86.85117        0.83699
O         62.65348       85.00357       -0.12667
H         64.24690       85.19151        2.00523
H         61.35035       85.14879        2.94296
H         60.73189       84.83058        0.62435
H         62.17515       84.98006       -0.99684
H         62.39294       87.40485        1.05194
H         61.07716       87.16266       -0.15968
H         60.69216       87.12243        1.59798
N         63.27511       82.65076        1.70547
C         63.41062       81.19445        1.67202
C         64.55987       80.78527        2.59175
O         65.64460       81.31990        2.40846
C         63.72607       80.74344        0.21140
C         62.68460       81.24142       -0.82388
C         63.91680       79.21682        0.11336
C         61.26752       80.69818       -0.63510
H         64.03793       83.18735        1.27032
H         62.47476       80.70112        1.98053
H         64.69359       81.20886       -0.08571
H         63.03255       80.95807       -1.84143
H         62.64049       82.35010       -0.79455
H         62.99941       78.67441        0.41967
H         64.17805       78.93021       -0.92727
H         64.74784       78.87925        0.76706
H         60.85444       80.99466        0.34988
H         60.61184       81.11900       -1.42626
H         61.24845       79.59377       -0.73172
N         64.47394       79.81963        3.56037
C         63.29722       79.01915        3.89495
C         63.68338       77.78947        4.71655
O         64.28599       77.94009        5.77217
C         62.22445       79.83891        4.66327
C         62.67495       80.53122        5.92834
O         61.77048       81.21699        6.65264
O         63.83754       80.50719        6.29828
H         65.34770       79.60357        4.06243
H         62.83679       78.63788        2.95853
H         61.38758       79.15176        4.91761
H         61.80317       80.62071        4.01751
N         63.29804       76.53720        4.32055
C         63.48784       75.34830        5.14811
C         64.12648       74.21512        4.34587
O         63.65123       73.97091        3.24085
C         62.10699       74.89603        5.68563
C         62.21862       74.29990        7.06979
C         61.95439       72.94575        7.32666
C         62.57727       75.14423        8.13944
C         62.05779       72.44823        8.63356
C         62.66937       74.64697        9.43900
C         62.41180       73.29857        9.68716
H         62.74871       76.43682        3.45194
H         64.10688       75.61659        6.02226
H         61.60840       74.22152        4.95417
H         61.43490       75.77396        5.80852
H         61.67735       72.27718        6.52226
H         62.77293       76.19600        7.96513
H         61.86041       71.40361        8.83385
H         62.93711       75.31033       10.25209
H         62.48447       72.91594       10.69713
N         65.13637       73.41870        4.81499
C         65.71952       73.49741        6.14097
C         66.59795       74.72561        6.26399
O         66.37668       75.50226        7.18514
C         66.41297       72.13239        6.30079
C         66.83399       71.76121        4.89465
C         65.66419       72.29201        4.06132
H         64.94192       73.53097        6.93521
H         67.19224       72.06936        7.08960
H         65.61567       71.39605        6.55763
H         67.75851       72.31102        4.66042
H         67.07204       70.69020        4.72359
H         66.02407       72.57812        3.04787
H         64.85829       71.53097        3.97714
N         67.59546       74.98704        5.37656
C         68.42431       76.17492        5.42659
C         69.76472       75.78922        6.02700
O         70.46017       74.98078        5.42704
C         68.60566       76.73734        3.99870
C         67.26571       77.10646        3.34685
C         67.45985       77.54104        1.92198
O         66.91647       76.92857        1.01593
O         68.23375       78.60459        1.63414
H         67.78063       74.33797        4.60677
H         67.93041       76.95562        6.03950
H         69.10149       75.96414        3.36893
H         69.26258       77.63414        4.03035
H         66.79673       77.92349        3.92480
H         66.57993       76.23093        3.35835
N         70.20920       76.27556        7.22101
C         69.45881       77.19426        8.05113
H         68.49011       76.73782        8.34660
H         70.02867       77.41755        8.97749
H         69.28170       78.14670        7.50914
H         71.12521       75.95669        7.57236
Ca        67.87481       86.97373        3.78473
O         69.57675       85.24062        5.40280
H         69.40639       85.74589        6.23733
H         69.93830       84.37050        5.70459
O         66.69376       84.08450        4.20332
H         66.48473       83.82881        3.27000
H         65.87971       83.84727        4.71462
O         66.58584       87.43913        6.24701
H         66.12159       86.65774        6.63967
H         66.63038       88.10497        6.97738
O         69.25999       84.94348        1.79770
H         68.95400       85.44435        1.00008
H         69.60733       84.08909        1.43753

Ca 1.0



