%chk=apoCaM-CA-Ng.loop2.water3.frame1314.chk
%nprocshared=20
%mem=10GB
%nosave
#b3lyp/svp scf=(tight,noincore,xqc) Test 
#IOP(5/87=12) Density=Current Pop=(MK,readradii) iop(6/33=2) iop(6/42=6)

apoCaM-CA-Ng.loop2.water3.frame1314 

   -2  1 
C         38.35657       21.11778       80.88447
C         37.09562       21.89595       81.10514
O         37.19669       23.05490       81.48210
H         39.19730       21.61561       81.41341
H         38.28506       20.08631       81.27493
H         38.58562       21.11769       79.79722
N         35.85353       21.39445       80.86227
C         35.50534       20.03206       80.47555
C         34.49850       19.41852       81.45306
O         34.04940       18.30830       81.20182
C         34.94774       20.06434       79.03641
C         33.84771       21.06867       78.82211
O         34.02495       22.01595       78.07255
O         32.66291       20.92508       79.43518
H         35.06420       22.03977       80.96556
H         36.38719       19.36157       80.45864
H         34.58408       19.05842       78.73657
H         35.79119       20.33621       78.36767
N         34.10555       20.06940       82.58942
C         33.04707       19.60245       83.47435
C         32.03947       20.73229       83.64508
O         31.60595       21.01051       84.75596
C         33.68455       19.19812       84.80575
H         34.54024       20.96634       82.84656
H         32.51925       18.72178       83.04480
H         34.37368       18.34387       84.63595
H         34.27303       20.04995       85.21269
H         32.91771       18.89612       85.54867
N         31.73234       21.51257       82.56993
C         30.95915       22.73976       82.65085
C         29.92003       22.86975       81.56142
O         29.97796       22.18780       80.54782
C         31.90785       23.95313       82.56411
C         32.93519       23.88971       81.45113
O         32.64555       23.76316       80.12555
O         34.10822       23.99629       81.77379
H         32.17995       21.29761       81.67649
H         30.42310       22.79263       83.62400
H         32.47112       24.00114       83.52561
H         31.33211       24.89773       82.48411
N         28.94432       23.80936       81.72727
C         27.97732       24.20379       80.72117
C         28.63027       25.02797       79.64631
O         29.83831       25.19806       79.67418
H         28.89407       24.30450       82.62907
H         27.22984       24.86833       81.19717
H         27.45379       23.31559       80.30185
N         27.88049       25.59665       78.66357
C         28.48879       26.25246       77.51278
C         28.05764       27.71067       77.39084
O         27.05922       28.09273       77.98776
C         28.11625       25.44669       76.26538
C         28.38976       23.92360       76.39088
N         27.27207       23.06731       76.77111
O         29.67512       23.33981       76.51000
H         26.85339       25.50216       78.69957
H         29.59253       26.24364       77.60132
H         28.62615       25.84769       75.36751
H         27.01910       25.56784       76.09903
H         26.51221       23.25187       76.07249
H         27.54873       22.07485       76.59873
N         28.81679       28.60350       76.68098
C         28.50736       30.03050       76.62728
C         29.26216       30.79296       77.70237
O         30.12874       30.20344       78.33375
H         29.70270       28.28070       76.26291
H         27.42044       30.16819       76.78299
H         28.75155       30.44099       75.62267
N         28.97635       32.08670       78.04760
C         27.90109       32.90934       77.48678
C         28.37983       34.27370       76.96966
O         27.54917       35.01441       76.46134
C         26.80974       33.10847       78.57172
C         26.08802       31.78787       78.88076
O         27.39017       33.63533       79.74064
H         29.50937       32.48423       78.83792
H         27.43220       32.41131       76.61424
H         26.04689       33.81762       78.18034
H         26.65452       33.83381       80.37632
H         26.77424       31.04880       79.34476
H         25.24038       31.97414       79.57367
H         25.66817       31.35857       77.94584
N         29.67680       34.68508       77.07195
C         30.18360       35.98508       76.60777
C         31.34950       35.69872       75.64856
O         32.00762       34.68833       75.85862
C         30.66694       36.78952       77.86064
C         29.55543       36.87430       78.94507
C         31.14895       38.20436       77.49159
C         30.07807       37.37799       80.29211
H         30.35500       34.06420       77.53320
H         29.38177       36.56274       76.09599
H         31.51812       36.22336       78.29798
H         29.16173       35.85996       79.15406
H         28.70552       37.50480       78.59997
H         31.54595       38.75037       78.36827
H         31.97519       38.15370       76.76030
H         30.31234       38.80255       77.06937
H         29.27739       37.28958       81.05604
H         30.93723       36.75205       80.61839
H         30.39247       38.43865       80.24457
N         31.71802       36.46390       74.57789
C         31.09892       37.69898       74.10655
C         32.10665       38.59555       73.41440
O         33.18620       38.15360       73.04217
C         29.98310       37.39021       73.08802
C         30.42655       36.39159       72.04988
O         30.29447       35.07476       72.30271
O         31.00843       36.75600       71.04050
H         32.50999       36.09919       74.02491
H         30.68056       38.28183       74.93959
H         29.62964       38.32069       72.58600
H         29.10742       36.96746       73.61571
N         31.75496       39.88151       73.14245
C         32.48081       40.71562       72.20660
C         33.15173       41.87935       72.91937
O         32.47495       42.57313       73.66621
C         31.47687       41.16594       71.12814
C         32.17181       41.59928       69.86994
C         32.39070       40.65670       68.84836
C         32.62303       42.91531       69.70484
C         33.05388       41.02626       67.67885
C         33.27874       43.28444       68.52558
C         33.49544       42.34069       67.51530
H         30.87149       40.25083       73.52856
H         33.23488       40.09248       71.68883
H         30.74625       41.92179       71.49399
H         30.86435       40.27506       70.86059
H         32.05866       39.63089       68.96387
H         32.46333       43.64990       70.48379
H         33.22573       40.29157       66.90236
H         33.62145       44.30155       68.39537
H         34.00689       42.62559       66.60594
N         34.47578       42.18254       72.73058
C         35.34088       41.53529       71.75992
C         35.92687       40.23063       72.26791
O         36.36918       39.45422       71.43756
C         36.41289       42.59053       71.50364
C         36.58386       43.21038       72.87731
C         35.13653       43.30679       73.36624
H         34.82326       41.35751       70.79317
H         37.33757       42.21347       71.01702
H         35.96352       43.37292       70.84944
H         37.12944       42.47049       73.50391
H         37.13900       44.17193       72.89976
H         35.10546       43.25555       74.47797
H         34.64968       44.24043       73.01342
N         35.96033       39.91538       73.59615
C         36.47917       38.64866       74.11250
C         37.96581       38.48189       73.80863
O         38.75858       39.22755       74.36622
C         36.23530       38.56962       75.64010
C         34.80450       38.11544       75.94783
C         34.60119       37.98581       77.42691
O         34.54624       39.08587       78.20073
O         34.47139       36.88250       77.93323
H         35.59449       40.60380       74.26971
H         35.92600       37.81755       73.63728
H         36.46775       39.54855       76.12405
H         36.90648       37.80763       76.08924
H         34.66894       37.11448       75.47993
H         34.04294       38.80434       75.52495
N         38.45306       37.54651       72.93301
C         37.64747       36.63356       72.13915
H         36.76947       37.13454       71.69377
H         38.24808       36.27295       71.27592
H         37.31976       35.76057       72.73904
H         39.47156       37.51904       72.76951
Ca        31.18861       23.53292       78.31295
O         30.05581       20.73571       77.62860
H         29.08643       20.53743       77.65046
H         30.48777       19.85751       77.48401
O         32.22621       22.88006       75.40261
H         31.86653       23.15172       74.52092
H         32.87370       22.15969       75.20162
O         32.15841       25.49539       76.82352
H         32.60290       26.10027       77.46799
H         31.57878       26.07550       76.27166

Ca 1.0



