%chk=apoCaM-CA-Ng.loop1.water8.frame594.chk
%nprocshared=20
%mem=10GB
%nosave
#b3lyp/svp scf=(tight,noincore,xqc) Test 
#IOP(5/87=12) Density=Current Pop=(MK,readradii) iop(6/33=2) iop(6/42=6)

apoCaM-CA-Ng.loop1.water8.frame594 

   0  1 
C         48.19621      117.04863      109.47165
C         47.64583      118.41473      109.18111
O         46.59048      118.75744      109.69537
H         49.19069      117.14618      109.95717
H         47.52403      116.48693      110.15533
H         48.30779      116.47681      108.52723
N         48.33384      119.26531      108.36958
C         47.89122      120.62911      108.09251
C         46.56875      120.63108      107.34285
O         46.50424      120.12030      106.23272
C         48.94866      121.39563      107.27362
C         50.26008      121.48212      108.00607
O         51.27110      121.00663      107.51425
O         50.32614      122.08765      109.20742
H         49.22690      118.93500      107.97111
H         47.77179      121.15857      109.06459
H         48.58984      122.43010      107.08306
H         49.09983      120.89084      106.29322
N         45.46033      121.18018      107.91395
C         44.15386      121.19816      107.26573
C         44.11342      122.17210      106.11236
O         44.39683      123.34389      106.32697
C         43.04238      121.64835      108.23593
C         42.85772      120.69193      109.41474
C         41.61901      121.09000      110.22203
C         41.41340      120.14464      111.40795
N         40.17844      120.46806      112.11957
H         45.54437      121.56598      108.86647
H         43.88958      120.17103      106.92805
H         42.08736      121.67070      107.66103
H         43.24082      122.67608      108.61688
H         43.75894      120.70828      110.06404
H         42.71167      119.65960      109.02822
H         40.72807      121.03907      109.55674
H         41.72468      122.13318      110.59423
H         42.27960      120.23144      112.10130
H         41.35652      119.09490      111.04318
H         40.20589      121.45503      112.46413
H         39.35830      120.33966      111.48251
H         40.07581      119.82272      112.93531
N         43.61673      121.78937      104.90022
C         43.27981      122.76887      103.87551
C         42.49041      122.11142      102.75287
O         43.06582      121.29170      102.04985
C         44.54395      123.44964      103.28712
C         44.21806      124.67167      102.46768
O         42.95383      125.12941      102.38722
O         45.11980      125.30075      101.94032
H         43.33841      120.80459      104.76644
H         42.65620      123.53718      104.37582
H         45.11677      122.71649      102.67760
H         45.21465      123.80170      104.09445
N         41.18782      122.40628      102.47052
C         40.31161      123.28555      103.23226
C         39.92672      122.73140      104.59491
O         40.39715      121.66876      104.97695
H         40.78634      121.97923      101.62436
H         39.37664      123.40712      102.65731
H         40.76069      124.28963      103.32654
N         39.04541      123.42535      105.37981
C         38.63501      123.00397      106.72363
C         37.13279      122.75397      106.86351
O         36.71856      122.37148      107.94982
C         39.10127      124.04447      107.76655
C         38.45463      125.40739      107.66419
O         38.80469      126.36439      108.54324
O         37.61088      125.65742      106.81744
H         38.67050      124.31051      105.00832
H         39.13520      122.04476      106.98291
H         40.20181      124.16448      107.67582
H         38.88797      123.64836      108.78383
N         36.26283      122.90853      105.82387
C         34.83976      122.60981      105.91741
C         34.57081      121.35556      105.13321
O         33.81576      121.37414      104.17196
H         36.62107      123.19694      104.90705
H         34.25225      123.47554      105.54054
H         34.52179      122.41793      106.96482
N         35.21001      120.21558      105.51114
C         35.15265      118.94239      104.81016
C         36.55672      118.59569      104.35679
O         37.48808      118.65457      105.14782
C         34.52552      117.83788      105.68489
C         35.21118      117.64509      107.03991
O         33.17210      118.13629      105.90954
H         35.82188      120.26764      106.33881
H         34.50496      119.02074      103.90767
H         34.60024      116.87049      105.13279
H         32.68761      117.92198      105.06817
H         35.11869      118.56041      107.66111
H         34.71892      116.81330      107.58368
H         36.28229      117.38950      106.91809
N         36.77855      118.31625      103.04868
C         38.10324      118.23717      102.45348
C         38.27967      119.51108      101.65714
O         39.29350      120.16447      101.83317
C         38.29112      116.94057      101.62096
C         37.98435      115.66320      102.44991
C         39.71367      116.87166      101.02541
C         38.85141      115.46542      103.70034
H         35.96186      118.25763      102.42490
H         38.89473      118.24103      103.23553
H         37.57285      116.95373      100.77161
H         38.10878      114.77250      101.79578
H         36.92143      115.68980      102.77132
H         40.48808      116.88793      101.82136
H         39.84025      115.94312      100.42855
H         39.90240      117.73364      100.35221
H         39.92514      115.37299      103.43997
H         38.71737      116.29907      104.41828
H         38.54375      114.53023      104.21343
N         37.26887      119.99960      100.87896
C         37.29136      121.31478      100.25791
C         37.06518      121.17438       98.77467
O         36.65196      120.11666       98.31440
C         36.16003      122.19192      100.87840
C         36.33500      122.40854      102.38224
O         36.04412      123.43908      100.23883
H         36.40241      119.45573      100.76405
H         38.27593      121.80681      100.41762
H         35.19315      121.65835      100.74056
H         36.87124      123.95471      100.42779
H         35.47507      122.99191      102.77439
H         36.39373      121.44391      102.92620
H         37.25242      122.98717      102.58347
N         37.30575      122.23443       97.96236
C         37.00101      122.23629       96.54710
C         38.28478      122.35727       95.74377
O         38.52613      121.50428       94.90139
C         35.96763      123.35779       96.27104
C         35.42630      123.30691       94.84249
O         36.52181      124.62251       96.53050
H         37.70349      123.09313       98.37235
H         36.50789      121.28075       96.25596
H         35.10744      123.17904       96.96153
H         35.77099      125.23249       96.75319
H         36.23900      123.46499       94.10454
H         34.94526      122.32240       94.65697
H         34.65661      124.09693       94.70906
N         39.15102      123.39488       95.94044
C         40.29547      123.64062       95.07289
C         41.43358      124.30581       95.83354
O         41.20253      125.29439       96.51587
C         39.82814      124.55845       93.93330
C         40.93806      124.83358       92.90718
C         40.42970      125.79026       91.82365
C         41.50954      126.17193       90.79986
N         41.94608      125.03054       89.99436
H         38.90576      124.12013       96.62873
H         40.65060      122.69329       94.60733
H         39.46374      125.51670       94.36435
H         38.97844      124.06761       93.40745
H         41.26172      123.86861       92.46157
H         41.80933      125.30637       93.40914
H         40.09575      126.72663       92.32221
H         39.55664      125.34451       91.29893
H         42.38266      126.62537       91.32018
H         41.07776      126.94091       90.12234
H         42.43526      124.32184       90.58518
H         41.12503      124.59404       89.51545
H         42.61709      125.36914       89.26763
N         42.71623      123.87747       95.65992
C         43.86421      124.55564       96.25388
C         43.87124      124.42163       97.77370
O         43.88701      125.45609       98.42421
C         45.19259      124.09722       95.60561
C         45.27856      124.54574       94.13392
C         46.56550      124.09995       93.50124
O         46.54694      123.37806       92.51700
O         47.74646      124.50696       94.00520
H         42.88513      123.08608       95.02035
H         43.79783      125.64420       96.01885
H         45.30839      122.99973       95.65557
H         46.03995      124.56827       96.15211
H         45.22856      125.65555       94.07998
H         44.42448      124.13215       93.55579
N         43.84666      123.23765       98.45281
C         43.78484      121.92725       97.84485
H         42.87441      121.83086       97.21988
H         44.69367      121.72223       97.25285
H         43.73395      121.15380       98.64004
H         43.84579      123.27332       99.48466
Ca        42.47578      127.19879      101.63420
O         40.42590      129.00187      104.13945
H         39.79765      128.71039      104.84721
H         39.94032      129.71703      103.65788
O         39.51426      126.46818      101.78805
H         38.89091      126.78415      101.08685
H         38.93953      125.98631      102.43409
O         45.21276      128.28452      100.82320
H         45.81569      127.90223      101.50913
H         44.88752      127.50117      100.31225
O         40.47407      129.71308      100.90587
H         39.50415      129.51917      100.86506
H         40.52648      130.66532      101.17200
O         43.98034      127.92011      104.46587
H         44.16632      127.24437      105.16529
H         44.83704      128.01487      103.97912
O         43.23108      130.27268      102.26124
H         43.26191      130.50154      101.29823
H         43.87034      130.89803      102.68568
O         41.29597      127.07978       98.95137
H         42.23557      127.39108       98.96311
H         40.76891      127.90509       98.81133
O         41.38475      126.30134      104.80306
H         42.00283      125.76451      105.35900
H         40.49926      126.18232      105.22904

Ca 1.0



