%chk=apoCaM-CA-Ng.loop4.water3.frame220.chk
%nprocshared=20
%mem=10GB
%nosave
#b3lyp/svp scf=(tight,noincore,xqc) Test 
#IOP(5/87=12) Density=Current Pop=(MK,readradii) iop(6/33=2) iop(6/42=6)

apoCaM-CA-Ng.loop4.water3.frame220 

   -3  1 
C         26.42496       46.35821       85.26846
C         27.71085       46.94315       85.76633
O         28.30711       46.36428       86.66070
H         25.60174       47.08920       85.40129
H         26.52794       46.10260       84.19332
H         26.17505       45.43016       85.82857
N         28.21827       48.07922       85.20091
C         29.48958       48.69032       85.58342
C         30.62369       47.69411       85.37967
O         31.27485       47.28533       86.32519
C         29.39467       49.45566       86.93389
C         28.88478       48.71697       88.13895
O         29.58968       47.71486       88.68016
O         27.84043       49.06395       88.66871
H         27.69888       48.50826       84.42023
H         29.71344       49.51196       84.86594
H         28.68838       50.29833       86.75855
H         30.38269       49.90412       87.17477
N         30.86689       47.27159       84.10051
C         31.84091       46.29001       83.61310
C         33.29685       46.74488       83.72333
O         33.89298       46.94734       82.67299
C         31.57403       44.86077       84.15132
C         32.50631       43.79348       83.50521
C         30.09907       44.48041       83.91994
C         32.37689       43.63255       81.98173
H         30.25901       47.67260       83.36837
H         31.64358       46.22725       82.51935
H         31.76469       44.84515       85.24593
H         32.28244       42.80744       83.96614
H         33.56436       44.03711       83.73929
H         29.90895       43.44996       84.25989
H         29.42612       45.15111       84.48677
H         29.82139       44.54853       82.84798
H         31.34995       43.33009       81.69146
H         32.64967       44.56454       81.44694
H         33.06892       42.83682       81.63525
N         33.95377       46.93253       84.90798
C         35.33473       47.41121       84.93610
C         36.31930       46.34545       84.43737
O         36.94081       46.60918       83.41743
C         35.72628       48.02991       86.29830
C         34.88234       49.23000       86.63064
O         34.85208       50.19281       85.88077
O         34.18018       49.26208       87.77705
H         33.46715       46.78338       85.79837
H         35.40503       48.27203       84.22997
H         36.78441       48.36768       86.24521
H         35.62594       47.32089       87.13215
N         36.55708       45.13433       85.03418
C         35.91054       44.65764       86.24908
C         36.40177       43.28776       86.71475
O         37.25807       42.71397       86.05736
H         37.25080       44.52731       84.57167
H         34.82210       44.61849       86.05857
H         36.15633       45.34590       87.05454
N         35.91992       42.64940       87.83142
C         34.88631       43.12004       88.75585
C         33.61154       43.43238       87.98508
O         33.16448       44.57042       88.00649
C         35.42438       44.26298       89.65146
C         34.47756       44.61042       90.76672
O         34.10829       43.67161       91.65910
O         34.06722       45.75236       90.89063
H         36.29929       41.70934       88.02860
H         34.66343       42.29446       89.46755
H         35.64556       45.17613       89.07514
H         36.37032       43.91948       90.12309
N         32.99502       42.49611       87.20346
C         33.36926       41.08976       87.14565
C         34.14148       40.74963       85.89619
O         34.41272       41.62297       85.08380
H         32.20598       42.79504       86.61116
H         32.44487       40.47661       87.21371
H         34.00063       40.79591       88.00347
N         34.53710       39.46126       85.69172
C         35.29962       39.02079       84.52872
C         34.42897       38.24516       83.55670
O         34.91010       37.97496       82.46557
C         36.50961       38.16643       84.96906
C         37.63198       38.96016       85.66449
C         38.43515       39.83377       84.72051
N         39.51843       40.50210       85.17870
O         38.13933       39.91707       83.53695
H         34.24792       38.74891       86.38101
H         35.64617       39.89948       83.94320
H         36.96697       37.64728       84.09844
H         36.13371       37.37768       85.65756
H         38.34470       38.21974       86.08726
H         37.22298       39.56401       86.50324
H         39.80200       40.43188       86.16660
H         40.08694       41.07736       84.53877
N         33.12963       37.92234       83.83292
C         32.21278       37.42894       82.80843
C         31.65806       36.04152       83.09200
O         30.88188       35.57730       82.26428
C         31.05878       38.45897       82.61696
C         31.61128       39.84552       82.24378
C         30.14786       38.58201       83.85243
H         32.74280       38.11095       84.76567
H         32.73659       37.34687       81.83104
H         30.42631       38.11139       81.77014
H         32.23452       39.77875       81.32733
H         30.77771       40.55289       82.04793
H         32.23134       40.26407       83.06623
H         29.70256       37.59990       84.11642
H         30.69341       38.97499       84.73483
H         29.31693       39.28030       83.62569
N         31.98064       35.31355       84.20281
C         31.39840       33.99630       84.46804
C         30.53862       33.98185       85.72755
O         29.73805       33.07057       85.86549
C         32.49901       32.92287       84.57383
C         33.37868       32.87194       83.34820
N         32.86602       32.57199       82.13203
O         34.57462       33.09703       83.45935
H         32.66082       35.69735       84.87563
H         30.71714       33.71039       83.63711
H         32.03801       31.92198       84.72320
H         33.13038       33.14617       85.46260
H         31.86301       32.37080       82.01441
H         33.47794       32.53722       81.30285
N         30.69521       34.90949       86.71898
C         29.92803       34.90243       87.96542
C         29.45024       36.30304       88.30557
O         29.88017       37.23822       87.65928
C         30.86570       34.42342       89.08957
C         31.23394       32.97595       88.90453
C         30.29013       31.97805       89.19439
C         32.51016       32.60740       88.45018
C         30.62112       30.62969       89.04552
C         32.83387       31.25711       88.28425
C         31.89508       30.26430       88.58765
O         32.22740       28.96635       88.43908
H         31.44481       35.60679       86.63992
H         29.04155       34.23573       87.88854
H         30.41286       34.53344       90.09833
H         31.77475       35.06644       89.06918
H         29.30354       32.24644       89.55250
H         33.24806       33.36306       88.21084
H         29.88724       29.87156       89.28811
H         33.81679       30.98230       87.92328
H         31.61089       28.25103       88.65175
N         28.61888       36.49645       89.37970
C         28.21201       37.77655       89.97362
C         27.28550       38.64512       89.12419
O         26.16331       38.87985       89.55224
C         29.43607       38.59050       90.45470
C         30.34544       37.84952       91.45506
C         29.68956       37.57510       92.78407
O         28.73647       36.81806       92.86986
O         30.18273       38.14265       93.90149
H         28.30049       35.65345       89.88025
H         27.60894       37.53013       90.87296
H         29.09183       39.53617       90.92916
H         30.05528       38.87008       89.57697
H         31.22762       38.49918       91.64104
H         30.71578       36.89889       91.01741
N         27.69702       39.22916       87.96444
C         26.90649       40.20663       87.22324
C         25.60118       39.63875       86.67369
O         24.81214       40.42099       86.16105
C         27.71937       40.79081       86.03639
C         29.13790       41.31067       86.35603
C         29.19219       42.44045       87.33709
O         29.75096       43.60459       86.96706
O         28.82834       42.28438       88.49162
H         28.63899       39.04514       87.64325
H         26.65790       41.03083       87.92694
H         27.13742       41.61131       85.56103
H         27.84366       39.98392       85.28427
H         29.59324       41.63384       85.40254
H         29.80199       40.50970       86.72960
N         25.30677       38.30526       86.71833
C         24.07342       37.74407       86.20433
H         23.39631       38.51522       85.78094
H         24.30931       37.00912       85.40668
H         23.53846       37.22368       87.02601
H         25.97831       37.63617       87.11768
Ca        30.30103       45.10685       88.53607
O         28.18493       45.46079       90.54720
H         27.41914       44.85694       90.71663
H         28.12813       46.14646       91.25891
O         32.25645       47.96537       89.68013
H         32.14694       46.98303       89.71773
H         32.10682       48.18649       88.72766
O         31.17124       43.61888       90.94561
H         31.30694       44.56754       91.19608
H         30.34409       43.35331       91.41989

Ca 1.0



