%chk=apoCaM-CA-Ng.loop2.water4.frame1464.chk
%nprocshared=20
%mem=10GB
%nosave
#b3lyp/svp scf=(tight,noincore,xqc) Test 
#IOP(5/87=12) Density=Current Pop=(MK,readradii) iop(6/33=2) iop(6/42=6)

apoCaM-CA-Ng.loop2.water4.frame1464 

   -2  1 
C         58.03607       74.57317       89.39443
C         58.97878       74.40113       88.23261
O         59.88269       73.58545       88.33837
H         56.99837       74.32873       89.08502
H         58.31614       73.89781       90.23092
H         58.08208       75.61926       89.76516
N         58.87268       75.12500       87.07998
C         57.83850       76.12512       86.82340
C         58.39772       77.54446       86.71490
O         57.61270       78.47774       86.81288
C         57.04448       75.75523       85.55182
C         57.92579       75.63558       84.33071
O         57.87221       74.56511       83.52499
O         58.68747       76.53430       84.02940
H         59.57265       74.94609       86.34329
H         57.12098       76.16057       87.66729
H         56.28522       76.54678       85.37057
H         56.50188       74.79659       85.69891
N         59.71870       77.79192       86.47839
C         60.29304       79.13315       86.39574
C         59.58718       80.02235       85.37934
O         59.15691       81.10298       85.75728
C         61.78627       79.03816       86.05439
H         60.35599       76.99485       86.34570
H         60.21209       79.61553       87.39572
H         62.24318       80.05011       86.03064
H         62.31343       78.43650       86.82617
H         61.93491       78.55190       85.06597
N         59.42492       79.63589       84.08192
C         58.81411       80.48306       83.05399
C         57.43094       80.00135       82.60992
O         56.84439       80.64586       81.75166
C         59.79390       80.62287       81.86620
C         60.19420       79.30503       81.25448
O         61.49028       78.93828       81.25012
O         59.35830       78.56853       80.75639
H         59.75786       78.70137       83.80902
H         58.63986       81.50670       83.45015
H         60.71390       81.12827       82.23302
H         59.34725       81.26705       81.07885
N         56.83311       78.90870       83.16047
C         55.50304       78.42810       82.81125
C         55.58080       77.09752       82.10458
O         56.66817       76.68471       81.72647
H         57.32611       78.38535       83.88635
H         54.95772       79.13107       82.14663
H         54.92290       78.32516       83.75328
N         54.45385       76.36051       81.88005
C         54.50332       75.09496       81.15672
C         54.87035       75.37732       79.71292
O         54.11627       76.05649       79.02888
C         53.15639       74.33933       81.24555
C         53.18033       72.96607       80.60032
N         52.07303       72.18948       80.62745
O         54.19284       72.54385       80.05976
H         53.55264       76.70158       82.24946
H         55.26612       74.44761       81.64674
H         52.35177       74.94663       80.77695
H         52.90472       74.19782       82.31922
H         51.20934       72.51952       81.08180
H         52.08001       71.25325       80.19498
N         56.03889       74.90702       79.19969
C         56.48329       75.16239       77.84116
C         57.76775       75.97030       77.84253
O         58.23046       76.35055       78.90868
H         56.66098       74.35343       79.80509
H         55.72020       75.72719       77.26393
H         56.63673       74.18413       77.34477
N         58.41169       76.31608       76.69020
C         57.96681       75.90866       75.36002
C         58.10913       74.40849       75.14448
O         57.51648       73.90766       74.19867
C         58.76088       76.64236       74.24938
C         58.52483       78.15652       74.27962
O         60.13297       76.37107       74.39269
H         59.25071       76.91062       76.77660
H         56.89388       76.18302       75.25291
H         58.40111       76.26492       73.26259
H         60.55850       76.54624       73.51326
H         59.08854       78.63798       73.45249
H         57.44517       78.37599       74.14044
H         58.86357       78.60233       75.23727
N         58.93511       73.64416       75.92204
C         59.14507       72.21324       75.70159
C         58.86322       71.43575       76.98316
O         58.68216       72.06669       78.01307
C         60.57991       71.98602       75.10513
C         61.76999       72.46649       75.98113
C         60.65950       72.68064       73.73436
C         62.07100       71.56450       77.17629
H         59.48122       74.09813       76.66760
H         58.40773       71.85092       74.95475
H         60.74530       70.91646       74.89651
H         61.63151       73.51807       76.30740
H         62.69472       72.43707       75.36382
H         61.63411       72.46683       73.24671
H         59.85848       72.30051       73.06460
H         60.55496       73.78009       73.83235
H         62.97195       71.94625       77.70192
H         61.24463       71.53613       77.90555
H         62.28758       70.53291       76.82307
N         58.79057       70.07308       77.04804
C         58.85832       69.16111       75.91559
C         60.05994       68.25634       76.06827
O         60.16215       67.56871       77.07625
C         57.57055       68.31644       75.84444
C         56.34050       69.17536       75.73667
O         55.38408       69.10048       76.68225
O         56.19935       69.93952       74.79528
H         58.63263       69.64756       77.97639
H         58.92709       69.70291       74.95448
H         57.48359       67.68168       76.75347
H         57.61689       67.64648       74.95768
N         60.99373       68.17848       75.07812
C         62.12773       67.26292       75.11465
C         63.44240       67.99917       74.88760
O         63.42823       69.04430       74.24894
C         61.92990       66.22914       73.98842
C         60.65142       65.45347       74.19280
C         60.53765       64.53788       75.25305
C         59.55630       65.65068       73.33430
C         59.34780       63.82936       75.44690
C         58.36517       64.94867       73.53887
C         58.26149       64.03703       74.59253
H         60.85837       68.73813       74.22207
H         62.16228       66.73664       76.08708
H         62.77763       65.51603       73.91787
H         61.88942       66.78461       73.02455
H         61.37121       64.36918       75.92375
H         59.61775       66.35886       72.51742
H         59.26684       63.12068       76.26090
H         57.52164       65.11362       72.88120
H         57.33914       63.49242       74.74713
N         64.64320       67.47729       75.29090
C         64.80222       66.28109       76.09531
C         64.37670       66.55757       77.53236
O         63.57558       65.79373       78.05438
C         66.27943       65.91388       75.88819
C         66.97041       67.24762       75.70213
C         65.92639       68.04866       74.91378
H         64.22090       65.41646       75.70774
H         66.71820       65.22624       76.64265
H         66.34723       65.41302       74.89480
H         67.12406       67.68420       76.70184
H         67.97560       67.21005       75.23210
H         66.01419       69.12934       75.16004
H         66.05258       67.89518       73.82020
N         64.84960       67.63233       78.22766
C         64.48625       67.93807       79.59926
C         65.72331       67.72262       80.46214
O         66.68077       68.45979       80.26862
C         63.99387       69.40028       79.67032
C         63.59722       69.84082       81.08569
C         63.18375       71.28408       81.08932
O         62.23240       71.65206       80.42072
O         63.86363       72.18105       81.82951
H         65.50452       68.28160       77.78249
H         63.64301       67.30740       79.91433
H         63.11742       69.51193       78.99544
H         64.79950       70.07492       79.30070
H         64.46167       69.72088       81.77311
H         62.75753       69.21566       81.45682
N         65.84530       66.74778       81.41379
C         64.87313       65.72307       81.75075
H         63.94425       65.74333       81.16320
H         65.33193       64.72598       81.58277
H         64.60221       65.81269       82.82236
H         66.73295       66.70496       81.93805
Ca        59.05641       74.93009       81.62852
O         60.89139       74.64298       79.20417
H         60.75181       73.69439       79.44936
H         61.85999       74.79443       79.34053
O         58.17150       72.18673       81.06025
H         58.46983       72.81725       80.35911
H         57.25645       72.48847       81.28672
O         60.87856       73.14874       83.12565
H         60.94633       73.10371       82.13935
H         60.00874       72.72312       83.33078
O         61.93369       76.12121       82.48378
H         61.98053       76.30368       81.51192
H         62.67855       75.49103       82.65133

Ca 1.0



