%chk=apoCaM-CA-Ng.loop2.water3.frame593.chk
%nprocshared=20
%mem=10GB
%nosave
#b3lyp/svp scf=(tight,noincore,xqc) Test 
#IOP(5/87=12) Density=Current Pop=(MK,readradii) iop(6/33=2) iop(6/42=6)

apoCaM-CA-Ng.loop2.water3.frame593 

   -2  1 
C         43.83303      109.77689      101.87929
C         43.24421      111.06629      102.37042
O         42.38690      111.03882      103.24219
H         44.92921      109.77411      102.05252
H         43.38301      108.91000      102.40920
H         43.63441      109.66837      100.79190
N         43.65209      112.24935      101.83234
C         43.09098      113.53361      102.23487
C         43.40469      113.82219      103.69333
O         44.57036      113.94774      104.03873
C         43.64490      114.66101      101.33830
C         43.04803      115.99844      101.67961
O         43.84286      117.00819      102.08261
O         41.84363      116.17661      101.58995
H         44.36343      112.22350      101.08445
H         41.98971      113.48896      102.07798
H         43.41145      114.43407      100.27525
H         44.75131      114.71186      101.44450
N         42.39719      113.95081      104.60264
C         42.62398      114.25781      106.01368
C         43.45512      113.17728      106.68356
O         43.33399      112.02857      106.27995
C         41.27653      114.35872      106.74136
H         41.42674      113.83475      104.27119
H         43.13130      115.24063      106.07880
H         40.65253      115.15105      106.27769
H         40.73047      113.39177      106.67688
H         41.41490      114.60759      107.81279
N         44.25280      113.40486      107.77103
C         44.45714      114.69906      108.43073
C         45.28187      115.67653      107.59338
O         45.74818      115.31929      106.52049
C         45.08783      114.47566      109.83129
C         46.41566      113.76603      109.80554
O         46.55091      112.57338      110.41720
O         47.37766      114.26839      109.25192
H         44.69731      112.57209      108.18939
H         43.46770      115.16255      108.61877
H         44.37861      113.86037      110.42709
H         45.20765      115.44016      110.36642
N         45.50634      116.94617      108.05190
C         46.29964      117.94046      107.34020
C         45.64570      118.41755      106.06152
O         44.53958      117.98872      105.76381
H         45.12619      117.21972      108.96950
H         47.29500      117.51330      107.11446
H         46.43669      118.82866      107.99421
N         46.25620      119.29989      105.21445
C         47.58837      119.87881      105.40429
C         48.58974      119.31360      104.39634
O         49.69852      119.82472      104.31725
C         47.51937      121.42864      105.33159
C         47.16934      122.02408      103.98127
N         47.14312      123.36924      103.83049
O         46.92975      121.30972      103.01917
H         45.75237      119.54176      104.34716
H         47.98845      119.64130      106.41085
H         48.51777      121.83047      105.61261
H         46.78869      121.79358      106.08616
H         47.35430      123.99278      104.62362
H         46.92211      123.79083      102.91577
N         48.27087      118.24904      103.60172
C         49.12743      117.70086      102.56096
C         50.42987      117.04812      103.00472
O         51.10034      116.51825      102.12970
H         47.34112      117.81521      103.68727
H         49.35421      118.49958      101.82268
H         48.54612      116.91322      102.03258
N         50.88610      117.04360      104.29239
C         52.17054      116.43433      104.65723
C         52.08615      114.91078      104.66173
O         51.01450      114.35874      104.45656
C         52.66514      116.95734      106.03374
C         52.96171      118.46111      105.98549
O         51.71550      116.67943      107.02854
H         50.34439      117.52209      105.02272
H         52.93812      116.73632      103.90935
H         53.62441      116.45282      106.28615
H         52.18032      116.75088      107.90289
H         53.73999      118.66728      105.21882
H         52.05276      119.04761      105.74225
H         53.35091      118.79942      106.96897
N         53.20415      114.17025      104.92195
C         53.21851      112.71686      105.02983
C         53.54141      112.35190      106.47139
O         54.59447      112.71584      106.97511
C         54.24290      112.09641      104.02894
C         54.40638      110.56736      104.26917
C         53.79268      112.38595      102.58322
C         55.45729      109.89707      103.38294
H         54.09607      114.65907      105.08779
H         52.21934      112.29395      104.78130
H         55.23390      112.57349      104.19718
H         53.43520      110.04886      104.13531
H         54.74569      110.40125      105.31286
H         53.68702      113.47745      102.41448
H         54.53589      112.01890      101.84747
H         52.81516      111.89906      102.37505
H         56.44441      110.38737      103.52020
H         55.55244      108.82876      103.67253
H         55.16957      109.92666      102.31361
N         52.66265      111.58414      107.17092
C         52.85376      111.09107      108.52612
C         52.99510      109.57046      108.53167
O         53.14214      109.01436      109.61165
C         51.64312      111.50693      109.37952
C         51.53533      112.99802      109.52653
O         52.35505      113.61019      110.19240
O         50.54370      113.66874      108.91238
H         51.80196      111.29301      106.70172
H         53.78367      111.50297      108.97646
H         51.70014      111.07155      110.40038
H         50.72456      111.10700      108.89824
N         53.03560      108.83722      107.37576
C         53.33495      107.41281      107.34132
C         52.32463      106.68729      106.45245
O         52.71920      106.14345      105.42913
C         54.80584      107.28779      106.87597
C         55.39175      105.89648      106.93549
C         56.00490      105.34098      105.79886
C         55.38507      105.16184      108.13628
C         56.60130      104.07759      105.86430
C         55.97231      103.89467      108.19314
C         56.58333      103.35442      107.05954
H         52.96957      109.30852      106.46421
H         53.28901      106.97571      108.35846
H         55.42215      107.90958      107.56230
H         54.91174      107.72104      105.85716
H         56.04092      105.89236      104.86747
H         54.93400      105.56607      109.03264
H         57.08487      103.66208      104.98979
H         55.96203      103.33559      109.12004
H         57.04814      102.37824      107.10945
N         50.99106      106.62360      106.77461
C         49.98271      105.91217      105.99102
C         49.76888      106.39990      104.56698
O         48.99412      105.77501      103.85536
C         48.68285      106.16067      106.76947
C         49.17990      106.25377      108.19053
C         50.43410      107.10757      108.02156
H         50.26965      104.83678      105.98994
H         48.28981      107.17540      106.51826
H         47.87822      105.41803      106.58114
H         48.44755      106.65039      108.92503
H         49.48486      105.22807      108.50131
H         50.19453      108.18772      107.90887
H         51.08545      106.93350      108.90274
N         50.35106      107.53875      104.09990
C         50.11873      108.03991      102.75643
C         50.94681      107.21818      101.79609
O         50.38721      106.61504      100.89070
C         50.44977      109.54595      102.61708
C         49.43082      110.50802      103.28034
C         49.48540      110.66953      104.77338
O         48.71067      111.60279      105.35296
O         50.29213      110.07032      105.45410
H         50.98457      108.06103      104.70939
H         49.04105      107.94472      102.49018
H         50.38092      109.77476      101.53044
H         51.48683      109.77839      102.93318
H         48.39894      110.23999      102.96948
H         49.65119      111.52317      102.88467
N         52.29645      107.13018      101.95212
C         53.12039      106.32850      101.07568
H         54.18018      106.37688      101.40448
H         52.78743      105.26888      101.10932
H         53.04874      106.70785      100.03465
H         52.75347      107.63154      102.72938
Ca        49.57850      112.70378      107.11437
O         48.91701      115.59445      107.39517
H         49.29271      115.76880      106.49740
H         49.23078      116.34677      107.95756
O         45.96237      111.62198      105.42498
H         46.03508      111.29741      104.49262
H         46.30516      112.55069      105.39488
O         47.71333      114.59193      104.13275
H         48.56370      115.05783      103.94111
H         47.02096      115.28733      104.00509

Ca 1.0



