%chk=apoCaM-CA-Ng.loop4.water4.frame244.chk
%nprocshared=20
%mem=10GB
%nosave
#b3lyp/svp scf=(tight,noincore,xqc) Test 
#IOP(5/87=12) Density=Current Pop=(MK,readradii) iop(6/33=2) iop(6/42=6)

apoCaM-CA-Ng.loop4.water4.frame244 

   -3  1 
C         25.70502       28.05959       91.04786
C         24.61504       29.04308       90.75617
O         23.84014       29.32558       91.64928
H         26.68999       28.55442       90.91741
H         25.63155       27.70003       92.09858
H         25.62562       27.19107       90.36442
N         24.51834       29.63445       89.53135
C         23.54920       30.67383       89.19380
C         23.73968       31.90813       90.05514
O         22.83899       32.30027       90.77141
C         22.08969       30.16389       88.98365
C         21.40363       29.15766       89.89484
O         21.07363       29.37206       91.18569
O         21.03529       28.10539       89.39603
H         25.21656       29.38324       88.81528
H         23.80250       31.05907       88.17853
H         22.11862       29.65596       87.99177
H         21.42493       31.04452       88.84770
N         24.92251       32.58952       89.95054
C         25.32656       33.83854       90.60528
C         24.53598       35.04652       90.10027
O         25.13538       35.87668       89.42942
C         25.39418       33.72673       92.15144
C         26.00671       34.99775       92.81145
C         26.18832       32.47349       92.56565
C         27.46176       35.31124       92.42423
H         25.63080       32.18168       89.31951
H         26.37257       34.00425       90.26497
H         24.36271       33.61488       92.54900
H         25.97492       34.86858       93.91405
H         25.38287       35.88284       92.56244
H         27.21366       32.48350       92.14235
H         26.26258       32.40973       93.66779
H         25.68182       31.55382       92.20774
H         28.14292       34.48227       92.70596
H         27.56463       35.51810       91.34009
H         27.80036       36.21925       92.96532
N         23.20380       35.21781       90.34527
C         22.44066       36.31471       89.76368
C         22.80541       37.65242       90.41595
O         23.30745       38.50079       89.69228
C         20.92077       35.99749       89.73582
C         20.57323       34.78556       88.90287
O         19.28318       34.41939       88.78266
O         21.43478       34.12851       88.33857
H         22.69502       34.53386       90.91063
H         22.71070       36.38925       88.68401
H         20.38239       36.86777       89.30251
H         20.51606       35.78925       90.73582
N         22.62508       37.96258       91.73785
C         22.01757       37.07473       92.71650
C         21.88723       37.67663       94.10752
O         22.38777       38.76943       94.33008
H         22.93002       38.90099       92.03802
H         22.61703       36.14497       92.78089
H         21.00496       36.87904       92.38433
N         21.24040       37.04279       95.13770
C         20.52017       35.77358       95.09460
C         21.39061       34.66066       94.54616
O         21.08485       34.14214       93.48076
C         19.15736       35.95151       94.37444
C         18.29886       34.71792       94.45271
O         17.88210       34.19642       93.43160
O         17.95954       34.19979       95.64838
H         21.24199       37.51528       96.04897
H         20.24228       35.49500       96.13591
H         19.27018       36.23062       93.31428
H         18.60466       36.77301       94.87766
N         22.48958       34.19056       95.19886
C         22.96086       34.58302       96.51387
C         23.61693       35.92924       96.51829
O         24.49723       36.16116       95.70272
H         23.00975       33.43610       94.74758
H         23.76455       33.87959       96.81083
H         22.15394       34.48333       97.27041
N         23.28622       36.85321       97.46229
C         23.95517       38.14741       97.55475
C         25.43476       38.01047       97.92294
O         26.11515       39.02879       97.90670
C         23.23321       39.07181       98.56606
C         21.78628       39.37965       98.12610
C         21.04345       40.31055       99.04969
N         19.77132       40.66601       98.75284
O         21.57264       40.74470      100.06247
H         22.53833       36.62134       98.13292
H         23.90021       38.63749       96.55768
H         23.78072       40.03842       98.62519
H         23.23589       38.60115       99.57401
H         21.19712       38.44325       98.07780
H         21.81161       39.84564       97.11653
H         19.31195       40.30939       97.90108
H         19.24292       41.29862       99.37139
N         26.01214       36.81046       98.25040
C         27.43364       36.65374       98.55231
C         27.68077       36.19338       99.98287
O         28.83972       36.16517      100.36804
C         28.13082       35.69789       97.54064
C         28.11550       36.28438       96.12317
C         27.52405       34.28322       97.53714
H         25.43118       35.96359       98.29323
H         27.94495       37.63976       98.47730
H         29.20025       35.60701       97.83572
H         27.07970       36.40324       95.74864
H         28.61338       37.27758       96.11555
H         28.67089       35.61792       95.42893
H         27.56084       33.83841       98.55376
H         26.47166       34.29263       97.18566
H         28.10289       33.62517       96.85499
N         26.66654       35.86324      100.84097
C         26.90317       35.59545      102.25747
C         26.43853       34.22019      102.71399
O         26.64189       33.94182      103.88831
C         26.16312       36.67710      103.07314
C         26.63302       38.06337      102.70346
N         25.78110       38.95957      102.15114
O         27.79774       38.37703      102.89878
H         25.68927       35.87924      100.52142
H         27.98664       35.65828      102.49793
H         26.32959       36.52898      104.16241
H         25.07094       36.58293      102.88043
H         24.79703       38.71423      101.96872
H         26.10885       39.90270      101.89495
N         25.82707       33.30768      101.89961
C         25.25567       32.05560      102.41179
C         24.78655       31.12845      101.30843
O         24.04120       31.56352      100.44147
C         23.99577       32.32459      103.28369
C         24.29826       32.77815      104.68283
C         24.98040       31.91179      105.55433
C         23.89685       34.04252      105.14017
C         25.26238       32.30493      106.86210
C         24.18669       34.43705      106.45045
C         24.86779       33.57107      107.31513
O         25.13515       33.96266      108.57669
H         25.73398       33.51564      100.89318
H         26.01901       31.50169      103.00044
H         23.41715       31.38149      103.41568
H         23.33430       33.03858      102.74351
H         25.28793       30.92762      105.22109
H         23.36959       34.72271      104.48293
H         25.78587       31.62315      107.52056
H         23.88006       35.41619      106.79440
H         25.59935       33.38910      109.20337
N         25.04229       29.78515      101.42518
C         24.42284       28.71156      100.64840
C         25.12664       28.44666       99.33160
O         25.46456       27.29823       99.07501
C         22.89137       28.90098      100.50894
C         22.15315       27.63059      100.05309
C         22.27123       26.52145      101.06462
O         22.77613       25.45493      100.75327
O         21.81836       26.70125      102.32110
H         25.59028       29.47617      102.24361
H         24.55716       27.78687      101.25433
H         22.67110       29.70908       99.78187
H         22.47119       29.19806      101.49576
H         22.54187       27.30116       99.06563
H         21.07398       27.86812       99.93792
N         25.41224       29.45088       98.45711
C         26.07618       29.22509       97.17507
C         27.47448       28.62964       97.33503
O         28.04370       28.23078       96.32801
C         26.21989       30.54846       96.38347
C         24.92406       31.34421       96.15613
C         23.93364       30.68218       95.24977
O         23.57452       31.32346       94.12453
O         23.39979       29.62879       95.55517
H         25.14724       30.40348       98.71502
H         25.45359       28.50756       96.59729
H         26.69312       30.35104       95.39560
H         26.90312       31.20982       96.96113
H         25.21374       32.31169       95.69618
H         24.42110       31.59294       97.10896
N         28.10432       28.56231       98.54673
C         29.42799       28.00359       98.73102
H         30.10156       28.78610       99.13882
H         29.37207       27.16546       99.45698
H         29.86493       27.61965       97.78595
H         27.65190       28.93636       99.39156
Ca        21.91895       30.72171       92.75137
O         19.40553       32.22075       91.67951
H         19.09024       33.04517       91.23182
H         18.67589       31.98503       92.30514
O         18.53682       29.57917       93.59296
H         17.93681       30.25732       93.99366
H         18.51244       28.82147       94.22934
O         21.23284       27.88888       93.91855
H         21.03070       28.13144       94.85706
H         22.21989       27.81959       93.88522
O         20.45295       31.45338       95.44225
H         19.96604       32.05589       96.05856
H         20.62716       30.63823       95.97659

Ca 1.0



