%chk=apoCaM-CA-Ng.loop4.water4.frame545.chk
%nprocshared=20
%mem=10GB
%nosave
#b3lyp/svp scf=(tight,noincore,xqc) Test 
#IOP(5/87=12) Density=Current Pop=(MK,readradii) iop(6/33=2) iop(6/42=6)

apoCaM-CA-Ng.loop4.water4.frame545 

   -3  1 
C         63.84996        9.38359       63.67634
C         63.04545        8.22791       63.16099
O         62.49351        7.47952       63.95447
H         64.89931        9.29025       63.32466
H         63.42179       10.33370       63.29339
H         63.84574        9.40885       64.78659
N         62.94247        8.03015       61.81516
C         62.22095        6.93538       61.16811
C         60.71318        6.98580       61.35960
O         60.05428        6.10903       60.81645
C         62.75400        5.56025       61.61516
C         64.24044        5.44996       61.47688
O         64.95035        5.21152       62.58667
O         64.79277        5.54595       60.39299
H         63.44012        8.68646       61.19390
H         62.39988        7.01876       60.07286
H         62.28012        4.75054       61.01924
H         62.48433        5.38048       62.67859
N         60.07653        7.95926       62.08187
C         58.62405        7.95712       62.25500
C         57.95916        8.02234       60.89281
O         58.52326        8.64362       60.00140
C         58.11622        9.06337       63.24236
C         58.31540       10.52869       62.76673
C         58.78299        8.87634       64.61881
C         57.24748       11.02072       61.78143
H         60.62362        8.71127       62.51419
H         58.37617        6.98210       62.72701
H         57.02898        8.91196       63.42440
H         59.33919       10.67429       62.36247
H         58.20319       11.20565       63.64159
H         58.60792        7.85050       64.99474
H         59.87581        9.05669       64.58619
H         58.34087        9.58102       65.35572
H         56.24343       10.95130       62.25262
H         57.44098       12.08543       61.53518
H         57.21938       10.46829       60.83103
N         56.82931        7.33467       60.58309
C         56.05309        6.52162       61.50885
C         56.45988        5.06764       61.39340
O         56.60088        4.40828       62.41352
C         54.55305        6.68349       61.20275
C         54.12391        8.12092       61.32213
O         53.65297        8.70294       60.35798
O         54.25921        8.77414       62.49223
H         56.51109        7.37190       59.60100
H         56.18672        6.84771       62.56255
H         53.95861        6.07691       61.92053
H         54.33705        6.31384       60.17542
N         56.69101        4.50662       60.17379
C         56.99438        3.10309       59.97603
C         55.75497        2.28944       60.22683
O         54.72245        2.62010       59.65889
H         56.64375        5.09487       59.32974
H         57.86466        2.78448       60.59276
H         57.26407        2.95334       58.90864
N         55.77283        1.18917       61.02859
C         54.56383        0.40132       61.25676
C         53.54212        1.12022       62.14100
O         52.44239        0.60125       62.27557
C         54.88602       -1.02194       61.78909
C         55.67576       -1.13099       63.06920
O         56.13612       -0.15122       63.62482
O         55.92083       -2.35013       63.58476
H         56.67424        0.88261       61.42352
H         54.08095        0.23163       60.26782
H         55.46652       -1.56404       61.01247
H         53.92557       -1.56412       61.92756
N         53.83226        2.27977       62.80590
C         52.91419        2.91924       63.74224
C         53.30805        2.63147       65.18258
O         52.61027        3.06809       66.08496
H         54.77761        2.67855       62.74016
H         51.88229        2.52757       63.61334
H         52.88340        4.01166       63.54149
N         54.38339        1.83951       65.45948
C         54.78450        1.33451       66.76182
C         55.25602        2.44596       67.67320
O         54.85876        2.50456       68.82956
C         53.68702        0.42666       67.36422
C         53.28366       -0.69509       66.38238
C         52.20655       -1.60623       66.91694
N         51.74136       -2.61617       66.14562
O         51.74329       -1.43922       68.03603
H         54.96170        1.50922       64.68834
H         55.68160        0.69458       66.59451
H         52.78880        1.03334       67.60755
H         54.06813       -0.02891       68.30427
H         54.17727       -1.30800       66.13503
H         52.89617       -0.24392       65.44320
H         52.11572       -2.76840       65.19714
H         51.00218       -3.24480       66.49336
N         56.13894        3.36628       67.19351
C         56.73744        4.42596       68.00052
C         58.26811        4.45052       67.88952
O         58.88064        5.24530       68.58810
C         56.14908        5.80846       67.59415
C         56.38263        6.13900       66.11046
C         54.64947        5.88322       67.90816
H         56.36623        3.32534       66.18898
H         56.50185        4.26167       69.07563
H         56.65030        6.59117       68.20610
H         57.46214        6.10317       65.88325
H         55.85345        5.42607       65.44341
H         56.01467        7.16106       65.87991
H         54.25944        6.89497       67.66675
H         54.08021        5.13542       67.31739
H         54.47629        5.69548       68.98908
N         58.95274        3.66587       67.00292
C         60.38770        3.80429       66.75787
C         61.20144        3.02421       67.77495
O         60.63252        2.33544       68.61281
C         60.69915        3.30698       65.32133
C         59.95482        4.08545       64.25478
N         59.97552        3.66407       62.97170
O         59.31873        5.08810       64.54199
H         58.43549        3.03119       66.38355
H         60.67542        4.87907       66.81152
H         60.39430        2.23972       65.25440
H         61.78386        3.36965       65.09149
H         60.49077        2.81457       62.70288
H         59.44837        4.17509       62.25036
N         62.56234        3.08072       67.73688
C         63.44184        2.31631       68.61498
C         64.32665        3.21919       69.43865
O         64.30867        4.43139       69.25829
C         64.31181        1.38682       67.73799
C         63.49758        0.22165       67.25027
C         63.11937        0.09224       65.90518
C         63.11437       -0.76410       68.17404
C         62.35370       -1.00745       65.49803
C         62.36376       -1.86422       67.76462
C         61.97563       -1.98983       66.42856
O         61.24168       -3.05618       66.05367
H         63.00889        3.68379       67.02675
H         62.85852        1.72001       69.35039
H         65.17667        0.96292       68.29239
H         64.73510        1.98306       66.89743
H         63.40226        0.84378       65.17836
H         63.40999       -0.68262       69.21346
H         62.05490       -1.09608       64.46151
H         62.08429       -2.61793       68.48983
H         60.94445       -3.18242       65.14204
N         65.13238        2.66450       70.39028
C         66.06955        3.42258       71.19734
C         67.46829        2.87850       70.92004
O         67.77919        1.79956       71.40756
C         65.69156        3.32060       72.68749
C         66.60062        4.18374       73.57592
C         66.20015        4.07623       75.01858
O         65.80142        5.17196       75.69228
O         66.24454        2.99878       75.59114
H         65.09556        1.64247       70.53733
H         65.99893        4.49969       70.95177
H         65.73598        2.25757       73.01311
H         64.64325        3.67410       72.81009
H         66.52444        5.24521       73.25249
H         67.65883        3.86117       73.47751
N         68.37233        3.51731       70.12212
C         68.05647        4.70318       69.33762
C         68.39218        5.96993       70.08752
O         68.96722        5.91004       71.16525
C         68.72472        4.64747       67.95304
C         68.18867        3.47219       67.12498
C         68.48319        3.70372       65.67822
O         69.62278        3.74611       65.24467
O         67.43035        3.98605       64.89881
H         69.29538        3.07615       69.98301
H         66.97092        4.74150       69.12539
H         69.83368        4.60390       68.02251
H         68.45150        5.58285       67.41855
H         67.07809        3.46369       67.21774
H         68.56316        2.48983       67.48172
N         68.00269        7.17029       69.57083
C         68.23083        8.44016       70.22337
H         68.82517        9.09307       69.55139
H         67.25145        8.92466       70.42143
H         68.77132        8.32992       71.18572
H         67.49291        7.19271       68.67509
Ca        67.13468        4.83181       62.85998
O         66.92039        2.30273       61.47564
H         66.47112        2.75787       60.71957
H         67.88233        2.50148       61.34809
O         70.14303        5.25902       62.55807
H         70.39672        4.31483       62.71424
H         71.00209        5.75057       62.55378
O         66.29446        7.00769       65.15237
H         65.30744        7.07766       65.18544
H         66.58164        7.09940       66.09545
O         68.15760        6.31187       60.27523
H         68.00521        5.79943       59.44186
H         69.02864        6.76157       60.13539

Ca 1.0



