%chk=apoCaM-CA-Ng.loop4.water4.frame565.chk
%nprocshared=20
%mem=10GB
%nosave
#b3lyp/svp scf=(tight,noincore,xqc) Test 
#IOP(5/87=12) Density=Current Pop=(MK,readradii) iop(6/33=2) iop(6/42=6)

apoCaM-CA-Ng.loop4.water4.frame565 

   -3  1 
C         44.01433       -4.05324       68.86303
C         43.10855       -5.23974       69.00354
O         43.54067       -6.24427       69.54834
H         44.90468       -4.33632       68.26353
H         43.50153       -3.20850       68.35678
H         44.34116       -3.71705       69.86905
N         41.82655       -5.19133       68.53383
C         40.86701       -6.29597       68.58791
C         40.41288       -6.64198       70.00645
O         39.58256       -7.53103       70.14086
C         41.41545       -7.53846       67.84722
C         41.95249       -7.16414       66.49391
O         41.22098       -6.67654       65.64718
O         43.26860       -7.31067       66.24442
H         41.50927       -4.32665       68.06925
H         39.95352       -5.96562       68.04287
H         40.62190       -8.30947       67.73862
H         42.23738       -7.99242       68.43347
N         40.88128       -5.97942       71.10893
C         40.44085       -6.28240       72.47138
C         38.94178       -6.03022       72.63950
O         38.38351       -5.27834       71.85230
C         41.24216       -5.46508       73.54224
C         41.15099       -3.92891       73.31243
C         42.69928       -5.94789       73.60346
C         41.74317       -3.10447       74.45540
H         41.57971       -5.24462       70.98143
H         40.62699       -7.36843       72.61949
H         40.80071       -5.68002       74.53349
H         40.08481       -3.63450       73.22238
H         41.67083       -3.62990       72.37945
H         42.71637       -7.02411       73.84626
H         43.22473       -5.78281       72.64072
H         43.26239       -5.44974       74.41591
H         41.61604       -2.02487       74.22924
H         41.21608       -3.33441       75.40492
H         42.82847       -3.29151       74.57788
N         38.18239       -6.65309       73.59374
C         38.67018       -7.67139       74.52263
C         38.28064       -9.06391       74.04962
O         38.72101      -10.02469       74.66269
C         38.08203       -7.44376       75.93191
C         38.38276       -6.08324       76.49007
O         39.53382       -5.74117       76.70332
O         37.37236       -5.24426       76.79017
H         37.16613       -6.46712       73.58769
H         39.77343       -7.65738       74.58857
H         38.47684       -8.20981       76.63525
H         36.97687       -7.56616       75.87921
N         37.45064       -9.25875       72.98268
C         37.01171      -10.56492       72.52931
C         36.24742      -11.29235       73.60914
O         35.33098      -10.71534       74.17862
H         37.07457       -8.45377       72.46340
H         37.87813      -11.16195       72.17242
H         36.32268      -10.41817       71.66881
N         36.53924      -12.59093       73.90618
C         35.77136      -13.35974       74.88230
C         36.17031      -13.07856       76.32803
O         35.47946      -13.57048       77.20959
C         35.81548      -14.87630       74.56667
C         37.17758      -15.52458       74.58298
O         38.29443      -14.81543       74.81632
O         37.27199      -16.71964       74.35584
H         37.25157      -13.06754       73.33365
H         34.70039      -13.07543       74.77089
H         35.38245      -15.03466       73.55534
H         35.16905      -15.40829       75.29821
N         37.26931      -12.33684       76.65918
C         37.67636      -12.08709       78.03835
C         38.98258      -12.77247       78.39741
O         39.38879      -12.67160       79.54559
H         37.86595      -11.95695       75.91401
H         36.91353      -12.46420       78.75135
H         37.76854      -10.99087       78.19730
N         39.68754      -13.49859       77.48208
C         40.91708      -14.23383       77.75043
C         42.01600      -13.29585       78.20643
O         42.67822      -13.54313       79.20474
C         40.66623      -15.42196       78.70348
C         39.60715      -16.37981       78.12393
C         39.33764      -17.57805       78.99966
N         38.43003      -18.50140       78.60731
O         39.92857      -17.72527       80.05994
H         39.35462      -13.54186       76.51493
H         41.26528      -14.66089       76.78212
H         40.33127      -15.05308       79.69647
H         41.61826      -15.98140       78.83810
H         39.95158      -16.74398       77.13142
H         38.64818      -15.83464       77.98679
H         37.92237      -18.39309       77.71661
H         38.23339      -19.32604       79.19346
N         42.24392      -12.17077       77.47957
C         43.29936      -11.20481       77.74944
C         44.13900      -11.01015       76.49932
O         45.35744      -11.08429       76.58568
C         42.72537       -9.85208       78.28194
C         41.71998       -9.14714       77.35203
C         42.08080      -10.05698       79.66030
H         41.60883      -11.98814       76.69088
H         43.97891      -11.57186       78.55263
H         43.58366       -9.15887       78.43277
H         41.36778       -8.20419       77.82176
H         42.18983       -8.84947       76.39552
H         40.83408       -9.78784       77.15763
H         42.81683      -10.49460       80.36847
H         41.74970       -9.08206       80.07818
H         41.20281      -10.73005       79.59177
N         43.54736      -10.72668       75.30314
C         44.28170      -10.34781       74.10538
C         45.20591      -11.45649       73.61047
O         45.15787      -12.57126       74.10750
C         43.25736       -9.88049       73.03519
C         43.84722       -9.13161       71.86794
N         43.53308       -9.47372       70.60011
O         44.58348       -8.17743       72.06953
H         42.52017      -10.70148       75.25470
H         44.90715       -9.47304       74.39159
H         42.56753       -9.16959       73.52844
H         42.63816      -10.74040       72.69639
H         42.86512      -10.23136       70.41476
H         43.92873       -8.95491       69.80339
N         46.13083      -11.16126       72.65661
C         47.13249      -12.09555       72.12936
C         48.18186      -11.34016       71.31183
O         48.07822      -10.12926       71.18214
C         46.45267      -13.26947       71.38070
C         45.45704      -12.85415       70.32074
C         45.87090      -12.31329       69.09246
C         44.08116      -13.03631       70.55767
C         44.91923      -11.96343       68.12460
C         43.13805      -12.67282       69.59473
C         43.55214      -12.13085       68.37696
O         42.63039      -11.77198       67.46032
H         46.14186      -10.18870       72.33429
H         47.70210      -12.52572       72.98243
H         45.91052      -13.85814       72.14913
H         47.19713      -13.97285       70.95091
H         46.92332      -12.17889       68.87628
H         43.73259      -13.44942       71.49588
H         45.23309      -11.56529       67.17305
H         42.08309      -12.80324       69.80045
H         42.87478      -11.37371       66.61252
N         49.26891      -11.97847       70.78383
C         50.34759      -11.23597       70.13562
C         50.38590      -11.56985       68.65766
O         50.79006      -12.67339       68.32070
C         51.70076      -11.53964       70.81130
C         51.69704      -11.16790       72.30215
C         53.01948      -11.48183       72.94058
O         53.74876      -10.49881       73.50184
O         53.43304      -12.63042       72.96797
H         49.35050      -13.00227       70.86484
H         50.18714      -10.15155       70.25441
H         52.50175      -10.96183       70.29790
H         51.92793      -12.62410       70.70774
H         50.90738      -11.73740       72.83788
H         51.48382      -10.08214       72.40918
N         49.93121      -10.71430       67.69125
C         49.26886       -9.43313       67.95296
C         50.23115       -8.35780       68.42360
O         51.43590       -8.57180       68.43024
C         48.50961       -8.95858       66.69339
C         47.35420       -9.91828       66.38171
C         46.61217       -9.53207       65.14079
O         45.30311       -9.22689       65.20651
O         47.18028       -9.53248       64.06098
H         49.96631      -11.05562       66.71744
H         48.50834       -9.58355       68.74795
H         49.21548       -8.88556       65.83733
H         48.06277       -7.95559       66.86292
H         46.66063       -9.88909       67.24729
H         47.71903      -10.95820       66.24966
N         49.73351       -7.16638       68.86544
C         50.55230       -6.07666       69.35384
H         51.63632       -6.30852       69.31101
H         50.35829       -5.17108       68.74151
H         50.27869       -5.85791       70.40790
H         48.71228       -7.02137       68.87627
Ca        44.23982       -6.49872       64.37253
O         47.03597       -5.54602       65.79270
H         46.97452       -4.59422       65.52680
H         46.94052       -5.53536       66.77826
O         42.07392       -4.85062       62.92364
H         41.90036       -4.74681       61.95471
H         41.85448       -5.79744       63.11196
O         43.72252       -8.65236       62.36762
H         44.23209       -8.34399       61.57669
H         42.77394       -8.50007       62.12808
O         46.84078       -6.68199       62.22140
H         46.96926       -7.11123       63.10365
H         47.75870       -6.55881       61.87148

Ca 1.0



