%chk=apoCaM-CA-Ng.loop4.water3.frame31.chk
%nprocshared=20
%mem=10GB
%nosave
#b3lyp/svp scf=(tight,noincore,xqc) Test 
#IOP(5/87=12) Density=Current Pop=(MK,readradii) iop(6/33=2) iop(6/42=6)

apoCaM-CA-Ng.loop4.water3.frame31 

   -3  1 
C         59.80883       73.38172       45.12258
C         58.94246       74.60292       45.10413
O         57.89215       74.56852       45.71670
H         60.77986       73.62310       45.60027
H         59.31935       72.56874       45.70470
H         59.97644       73.02152       44.08698
N         59.32414       75.72028       44.41782
C         58.55034       76.95857       44.33070
C         57.79380       77.34929       45.59341
O         56.58285       77.46580       45.56098
C         57.80687       77.13942       42.97758
C         57.05788       75.98647       42.32853
O         56.01100       75.33320       42.87488
O         57.38684       75.66469       41.19730
H         60.22029       75.69052       43.90827
H         59.28710       77.79459       44.29538
H         58.59305       77.41869       42.23845
H         57.13861       78.02421       43.05252
N         58.50466       77.68601       46.71257
C         57.97958       78.23700       47.96549
C         57.30092       79.58889       47.73892
O         57.91723       80.60297       48.03651
C         57.11001       77.22267       48.76180
C         56.56946       77.80385       50.09850
C         57.87619       75.91284       49.01471
C         57.64077       78.27789       51.08583
H         59.53178       77.59664       46.65921
H         58.87818       78.44332       48.59029
H         56.23056       76.95546       48.14675
H         55.95418       77.02574       50.59727
H         55.90233       78.66566       49.88936
H         58.79526       76.08498       49.61009
H         57.22723       75.18729       49.55001
H         58.17646       75.44739       48.05718
H         58.22676       79.12029       50.66640
H         57.14824       78.63812       52.01371
H         58.33075       77.45671       51.35807
N         56.02386       79.68387       47.26574
C         55.35124       80.94501       46.98811
C         54.47736       81.41238       48.16292
O         54.73535       82.52720       48.59679
C         54.62276       80.88710       45.63036
C         55.54684       80.70080       44.45118
O         56.88125       80.59893       44.61126
O         55.07699       80.65125       43.32570
H         55.49062       78.82735       47.09472
H         56.11247       81.75101       46.86053
H         54.07456       81.84234       45.47604
H         53.90866       80.04822       45.61997
N         53.48534       80.71206       48.80579
C         53.03629       79.34946       48.57317
C         52.10383       79.20599       47.38279
O         51.82572       80.20031       46.72857
H         53.05773       81.17550       49.62340
H         52.44076       79.03150       49.45547
H         53.91259       78.68993       48.54933
N         51.52060       78.01305       47.03938
C         51.66630       76.75933       47.78641
C         53.11960       76.33332       47.89775
O         53.91818       76.77006       47.08231
C         50.78007       75.64453       47.17138
C         51.11162       75.34250       45.73404
O         50.27196       75.51587       44.86514
O         52.32084       74.85532       45.39873
H         50.89601       78.01762       46.21780
H         51.29833       76.96496       48.81483
H         49.72071       75.97706       47.23723
H         50.86168       74.69696       47.73863
N         53.58938       75.58161       48.93686
C         52.77687       74.92307       49.94325
C         52.89616       75.56241       51.29651
O         53.49691       76.61816       51.44067
H         54.60800       75.45150       49.02364
H         53.09933       73.86091       49.99560
H         51.70166       74.92495       49.70396
N         52.30757       74.94091       52.35281
C         52.32949       75.45474       53.71501
C         53.53483       74.95751       54.49645
O         53.71652       75.42449       55.61109
C         50.99012       75.17809       54.44876
C         50.54871       73.70082       54.41725
C         49.34099       73.45145       55.28106
N         49.37394       72.50397       56.24628
O         48.31611       74.09046       55.09437
H         51.90927       74.00905       52.17475
H         52.45781       76.56052       53.68577
H         50.18486       75.78427       53.97850
H         51.09409       75.51958       55.50243
H         51.38676       73.04984       54.74277
H         50.26099       73.41911       53.38377
H         50.22044       71.94015       56.40088
H         48.54554       72.31676       56.82925
N         54.43436       74.07551       53.96559
C         55.68586       73.72597       54.63837
C         55.78314       72.25537       54.99898
O         56.73289       71.91498       55.69825
C         56.90468       74.17131       53.78056
C         56.95233       75.69898       53.65707
C         56.91867       73.53227       52.37753
H         54.25786       73.67362       53.03721
H         55.75345       74.25723       55.61314
H         57.83316       73.86000       54.30937
H         56.99994       76.16346       54.66504
H         57.86323       76.00000       53.10176
H         56.05851       76.08826       53.12432
H         56.89606       72.42484       52.44857
H         56.05616       73.87039       51.76531
H         57.84150       73.82544       51.83427
N         54.87771       71.32014       54.59128
C         54.97046       69.93336       55.04533
C         54.27246       68.88067       54.17812
O         54.49455       67.71413       54.46339
C         54.46551       69.84105       56.51187
C         53.02052       70.27193       56.68087
N         52.44276       70.25092       57.90395
O         52.36803       70.65009       55.72050
H         54.11070       71.61923       53.98083
H         56.04342       69.63587       55.00204
H         55.08784       70.49408       57.15955
H         54.57569       68.79912       56.88205
H         52.96984       69.93982       58.73160
H         51.46233       70.54760       58.02395
N         53.41824       69.16955       53.14544
C         52.73970       68.12911       52.37331
C         52.92459       68.36266       50.88683
O         52.62570       69.46145       50.44896
C         51.22686       68.13514       52.68032
C         50.91084       68.01945       54.15547
C         50.06482       68.96456       54.76234
C         51.44163       66.97819       54.93826
C         49.76020       68.87296       56.12281
C         51.15078       66.90098       56.30360
C         50.30717       67.84846       56.89980
O         50.01782       67.78700       58.21500
H         53.17355       70.13842       52.92072
H         53.11692       67.11902       52.63690
H         50.76847       67.27220       52.14996
H         50.76432       69.06368       52.27753
H         49.63442       69.77239       54.18332
H         52.09330       66.23343       54.50175
H         49.10367       69.60460       56.57537
H         51.58167       66.10432       56.89663
H         50.38607       67.10257       58.79147
N         53.30717       67.34307       50.04931
C         53.39029       67.41403       48.58167
C         54.68827       68.02976       48.08848
O         55.37932       67.38877       47.30817
C         52.16657       68.10115       47.92132
C         50.82711       67.43908       48.28168
C         50.74308       66.03003       47.76748
O         50.56972       65.00625       48.62423
O         50.82397       65.80794       46.56947
H         53.44934       66.41259       50.46915
H         53.40203       66.36725       48.20055
H         52.28770       68.07884       46.81570
H         52.12231       69.17341       48.19409
H         50.00134       68.02468       47.82409
H         50.68317       67.45286       49.38314
N         55.08526       69.26463       48.49308
C         56.29767       69.93061       48.03127
C         57.50076       69.04217       48.28363
O         58.23534       68.75586       47.34744
C         56.47183       71.30020       48.74345
C         55.27406       72.27375       48.60269
C         55.05033       72.77501       47.20625
O         55.04510       74.10181       46.99050
O         54.83924       72.00732       46.28261
H         54.50760       69.74331       49.18084
H         56.22499       70.10828       46.93723
H         57.39139       71.80066       48.36528
H         56.61119       71.11124       49.82978
H         55.48081       73.15296       49.24896
H         54.33443       71.82783       48.97678
N         57.72539       68.51428       49.51780
C         58.81728       67.60096       49.77459
H         59.78830       68.10742       49.59526
H         58.77875       67.25252       50.82834
H         58.73319       66.71347       49.10970
H         57.07856       68.73372       50.29030
Ca        55.44869       75.06873       45.01433
O         53.17966       74.99651       41.82005
H         53.75135       75.48027       41.17203
H         52.41180       75.60239       41.97355
O         53.59554       77.39224       43.84964
H         52.71761       77.78260       44.08787
H         54.25700       78.06079       44.15596
O         54.98972       72.55173       43.34039
H         54.36227       71.84751       43.64061
H         55.64229       72.07760       42.76682

Ca 1.0



