%chk=apoCaM-CA-Ng.loop2.water5.frame1406.chk
%nprocshared=20
%mem=10GB
%nosave
#b3lyp/svp scf=(tight,noincore,xqc) Test 
#IOP(5/87=12) Density=Current Pop=(MK,readradii) iop(6/33=2) iop(6/42=6)

apoCaM-CA-Ng.loop2.water5.frame1406 

   -2  1 
C         50.58826       85.79541       90.40657
C         50.67285       85.30818       88.98586
O         51.39567       85.91557       88.20960
H         51.23547       86.68621       90.55230
H         49.54395       86.07724       90.65200
H         50.93800       84.99780       91.09639
N         49.99579       84.21198       88.53807
C         49.10480       83.38707       89.35248
C         47.69148       83.30403       88.77751
O         46.88306       82.58256       89.34727
C         49.72273       81.98533       89.56432
C         49.94754       81.15900       88.32810
O         50.46750       79.92557       88.45440
O         49.67185       81.57983       87.21892
H         50.14453       83.93980       87.55533
H         48.99441       83.80929       90.37161
H         49.06147       81.40659       90.24483
H         50.70224       82.11021       90.07409
N         47.28989       84.04690       87.70213
C         45.91073       84.02291       87.21948
C         45.54512       82.73640       86.48636
O         44.36728       82.55468       86.20910
C         45.66330       85.20512       86.27194
H         47.94886       84.71065       87.27064
H         45.23754       84.15562       88.09648
H         44.60217       85.23277       85.94359
H         45.88907       86.16240       86.78944
H         46.31352       85.12536       85.37301
N         46.49487       81.86371       86.03475
C         46.18554       80.75125       85.13668
C         46.85659       79.44013       85.51137
O         47.66387       79.38811       86.42714
C         46.53354       81.16010       83.68376
C         47.78132       82.00861       83.50935
O         47.65199       83.11923       83.01890
O         49.02602       81.62844       83.87236
H         47.48516       82.08455       86.19627
H         45.09652       80.52267       85.16211
H         45.68821       81.79181       83.32933
H         46.55964       80.27492       83.01433
N         46.50221       78.30759       84.82705
C         47.09071       76.99281       85.03365
C         48.42546       76.85672       84.33341
O         48.87174       77.79342       83.68929
H         45.74187       78.36965       84.13250
H         46.42581       76.22744       84.57958
H         47.16694       76.77511       86.12147
N         49.12021       75.68656       84.40800
C         50.45944       75.52689       83.84064
C         50.52618       75.69654       82.32815
O         49.50354       75.73358       81.65801
C         51.06386       74.15326       84.23122
C         50.32516       72.95135       83.67176
N         50.78764       71.70478       83.91913
O         49.31750       73.09123       82.99324
H         48.70906       74.91228       84.95250
H         51.09257       76.31983       84.28996
H         51.08408       74.07084       85.33916
H         52.11452       74.10485       83.87391
H         51.63810       71.56176       84.48258
H         50.29774       70.88016       83.54039
N         51.75164       75.80609       81.73890
C         51.98767       75.88056       80.30819
C         52.51884       77.24253       79.90916
O         52.46166       78.15947       80.71430
H         52.58771       75.83487       82.34212
H         51.06179       75.69335       79.72215
H         52.71644       75.08345       80.06061
N         53.01124       77.49463       78.66240
C         53.29488       76.45500       77.68150
C         54.57065       75.72653       78.08235
O         54.54016       74.51391       78.23879
C         53.43086       77.03128       76.24283
C         52.11287       77.63255       75.74858
O         54.43571       78.01087       76.17695
H         53.27170       78.46698       78.43342
H         52.44713       75.73483       77.63395
H         53.68693       76.17633       75.57118
H         54.81146       77.98397       75.25803
H         52.23593       77.99276       74.70454
H         51.31133       76.86364       75.75894
H         51.80512       78.48836       76.38447
N         55.74217       76.41266       78.23344
C         57.01996       75.75912       78.49092
C         57.15714       75.50303       79.99464
O         57.06512       76.47991       80.72622
C         58.21479       76.64742       78.00975
C         58.04278       77.24185       76.58135
C         59.52812       75.84803       78.09700
C         57.80198       76.22017       75.46940
H         55.73167       77.43228       78.10383
H         57.06251       74.85797       77.85477
H         58.30364       77.52594       78.68808
H         58.94678       77.83886       76.33088
H         57.19391       77.95442       76.56970
H         60.39247       76.49006       77.82453
H         59.68383       75.46860       79.12434
H         59.50944       74.96642       77.42369
H         56.86565       75.65348       75.65163
H         57.69044       76.75826       74.50395
H         58.65325       75.51751       75.37560
N         57.38765       74.28917       80.58422
C         57.56023       73.00601       79.91652
C         58.91462       72.40250       80.27354
O         59.16902       72.13741       81.43810
C         56.40357       72.04142       80.27248
C         56.26639       71.70964       81.73836
O         55.96057       72.66648       82.63524
O         56.39176       70.55569       82.11583
H         57.45969       74.28652       81.61313
H         57.51822       73.11585       78.82374
H         56.55992       71.09817       79.70301
H         55.44326       72.48382       79.93018
N         59.82203       72.13396       79.28827
C         61.09450       71.44937       79.50652
C         62.25823       72.31601       79.02312
O         62.23198       72.71442       77.87207
C         61.08348       70.13587       78.68467
C         62.41945       69.42140       78.71598
C         63.18543       69.32132       77.53934
C         62.92480       68.87334       79.90651
C         64.43812       68.70319       77.55923
C         64.17979       68.25432       79.92228
C         64.93617       68.17228       78.75057
H         59.58081       72.38152       78.31762
H         61.21363       71.18054       80.57130
H         60.83829       70.39497       77.63065
H         60.28286       69.45528       79.04820
H         62.82159       69.73710       76.60781
H         62.35184       68.93250       80.82364
H         65.02376       68.64129       76.65116
H         64.56893       67.84121       80.84395
H         65.90999       67.69840       78.76399
N         63.37086       72.56376       79.79605
C         63.59552       72.10127       81.15226
C         63.05916       73.07079       82.19596
O         62.90646       72.66095       83.33422
C         65.12446       72.02312       81.22652
C         65.54090       73.23685       80.41642
C         64.57164       73.16591       79.23671
H         63.21348       71.08245       81.35305
H         65.54780       71.95969       82.25228
H         65.45381       71.12248       80.65756
H         65.31083       74.13988       81.02207
H         66.61221       73.28131       80.12825
H         64.40067       74.17131       78.79960
H         64.96415       72.47335       78.45851
N         62.83611       74.38951       81.90214
C         62.43074       75.35673       82.91761
C         63.51804       75.43780       83.98984
O         64.62998       75.80133       83.63085
C         62.24677       76.76870       82.30796
C         61.13946       76.82259       81.24691
C         60.99332       78.20851       80.68781
O         61.92610       78.73849       80.10458
O         59.82574       78.86740       80.81175
H         62.99691       74.72049       80.94426
H         61.45089       75.04630       83.31077
H         63.20571       77.10372       81.85202
H         61.98031       77.47697       83.12364
H         60.17646       76.50360       81.70170
H         61.38312       76.14185       80.41045
N         63.34374       75.12178       85.30960
C         62.13072       74.64459       85.94475
H         61.26794       74.52919       85.27343
H         62.33012       73.65138       86.39958
H         61.84089       75.35001       86.75075
H         64.16103       75.21946       85.93173
Ca        49.93651       79.87154       84.96134
O         51.54743       80.58206       82.55619
H         52.30016       80.60343       81.91364
H         51.13986       79.68782       82.43859
O         53.12812       80.47647       86.68912
H         54.03445       80.55484       86.29758
H         53.13458       79.60341       87.15515
O         53.01888       78.16564       84.25429
H         53.73511       78.84770       84.28040
H         53.49388       77.30233       84.34494
O         51.08163       77.38573       86.96597
H         51.59989       77.57079       87.78875
H         51.43668       76.51877       86.64679
O         51.79529       82.78476       85.00214
H         51.22376       83.24450       84.33747
H         52.59505       82.50509       84.49000

Ca 1.0



