%chk=apoCaM-CA-Ng.loop1.water4.frame702.chk
%nprocshared=20
%mem=10GB
%nosave
#b3lyp/svp scf=(tight,noincore,xqc) Test 
#IOP(5/87=12) Density=Current Pop=(MK,readradii) iop(6/33=2) iop(6/42=6)

apoCaM-CA-Ng.loop1.water4.frame702 

   0  1 
C         82.45686      127.69981        4.88138
C         83.75483      127.03561        5.24012
O         84.58325      126.82544        4.36584
H         81.60672      127.04062        5.15407
H         82.36590      128.65718        5.43818
H         82.40931      127.91930        3.79342
N         84.00462      126.69650        6.53499
C         85.27195      126.12323        6.98159
C         85.58768      124.79248        6.29985
O         84.89138      123.81035        6.51451
C         85.32731      125.99846        8.52467
C         84.28011      125.09483        9.13290
O         84.65547      124.02421        9.85536
O         83.09165      125.34782        9.02045
H         83.27704      126.92209        7.22803
H         86.06584      126.85315        6.70753
H         85.20952      127.01015        8.96992
H         86.33506      125.62226        8.80699
N         86.63925      124.71895        5.43268
C         87.04783      123.50925        4.72361
C         87.80113      122.56466        5.64868
O         88.73210      122.99641        6.31392
C         87.94324      123.89490        3.52865
C         88.31903      122.68389        2.65673
C         89.09658      123.13690        1.41638
C         89.48018      121.94678        0.52917
N         90.18014      122.39793       -0.67243
H         87.15140      125.59052        5.22604
H         86.14980      123.02221        4.27913
H         88.86578      124.40422        3.88471
H         87.36924      124.60992        2.89765
H         87.39137      122.16420        2.32816
H         88.93646      121.97033        3.24492
H         90.01980      123.67048        1.73107
H         88.46068      123.83539        0.82915
H         88.56310      121.39116        0.22992
H         90.14220      121.26080        1.10021
H         89.56053      123.02744       -1.23291
H         91.05503      122.90691       -0.40913
H         90.43247      121.56663       -1.25412
N         87.49246      121.23765        5.67360
C         88.18589      120.24873        6.51645
C         87.78492      118.81366        6.13987
O         86.83369      118.65177        5.38799
C         87.89768      120.55603        8.01024
C         86.45062      120.90542        8.24461
O         85.46041      120.05721        7.91364
O         86.16629      122.00804        8.68141
H         86.74216      120.92968        5.03841
H         89.27354      120.31523        6.31430
H         88.50436      121.43535        8.31517
H         88.18788      119.72589        8.67399
N         88.43582      117.68632        6.57323
C         89.61911      117.57566        7.42302
C         90.92411      118.00203        6.77881
O         90.93677      118.53720        5.68288
H         88.03701      116.78343        6.26816
H         89.75382      116.49387        7.64592
H         89.47939      118.07384        8.39736
N         92.08991      117.73420        7.43759
C         93.43085      118.04016        6.93862
C         93.73068      117.30345        5.64173
O         93.60205      116.08710        5.59902
C         94.48215      117.62799        7.99721
C         95.88525      117.97418        7.57325
O         96.72397      117.09586        7.44758
O         96.22415      119.25592        7.33691
H         92.01328      117.27488        8.35932
H         93.51794      119.13894        6.78767
H         94.41023      116.53248        8.18513
H         94.27289      118.15479        8.95262
N         94.21802      117.98253        4.56314
C         94.63876      117.32427        3.33472
C         93.50058      116.77926        2.49997
O         93.78628      116.18947        1.46648
H         94.37722      118.99834        4.64111
H         95.35596      116.51268        3.58521
H         95.17370      118.06173        2.69717
N         92.19577      116.97406        2.84000
C         91.07295      116.53680        2.02255
C         90.15219      115.61741        2.80229
O         90.37017      115.37671        3.98468
C         90.29162      117.77905        1.49850
C         89.69246      118.64406        2.61713
O         91.13783      118.58047        0.71629
H         91.97545      117.49132        3.69740
H         91.42984      115.96635        1.13655
H         89.43124      117.44826        0.87439
H         91.19550      118.15096       -0.17721
H         89.03209      118.04429        3.27700
H         90.48897      119.11638        3.22530
H         89.08011      119.45654        2.17753
N         89.05184      115.10918        2.18779
C         88.02568      114.34574        2.87787
C         88.57437      112.98909        3.28221
O         88.55624      112.66674        4.45772
C         86.74441      114.20975        1.98811
C         86.20429      115.58076        1.47549
C         85.63263      113.44711        2.73142
C         85.89633      116.61053        2.56605
H         88.91780      115.32800        1.19061
H         87.72253      114.90163        3.79336
H         86.99087      113.61798        1.07895
H         85.28391      115.40440        0.87754
H         86.93216      116.04724        0.78142
H         85.33746      113.97301        3.66245
H         84.73942      113.34242        2.07892
H         85.96897      112.42422        3.00018
H         85.51756      117.54068        2.09231
H         85.12458      116.23780        3.26776
H         86.81449      116.87557        3.12851
N         89.03374      112.13435        2.32357
C         89.50087      110.76791        2.59015
C         89.47653      109.93563        1.30304
O         89.12188      110.44787        0.25367
C         90.89273      110.74745        3.29306
C         91.98649      111.42794        2.46939
O         90.83226      111.37007        4.54861
H         88.98521      112.46858        1.35260
H         88.76033      110.26744        3.25126
H         91.22164      109.69462        3.44718
H         90.38521      110.73195        5.16540
H         92.10984      110.92343        1.48869
H         91.74459      112.49952        2.30670
H         92.95232      111.36592        3.01688
N         89.80141      108.60867        1.33118
C         89.64737      107.73799        0.16975
C         88.76609      106.56064        0.55280
O         87.69881      106.40964       -0.02832
C         91.02878      107.32845       -0.39728
C         90.88314      106.46717       -1.65892
O         91.79311      106.64890        0.56308
H         90.13504      108.19156        2.20966
H         89.13762      108.28376       -0.65521
H         91.54932      108.27489       -0.67760
H         92.74097      106.71021        0.27386
H         90.37180      105.50891       -1.42695
H         90.29659      107.01158       -2.43002
H         91.88491      106.23999       -2.07998
N         89.15383      105.68585        1.52282
C         88.37780      104.52741        1.93873
C         88.14272      104.62315        3.43333
O         89.10661      104.83252        4.16093
C         89.16237      103.25295        1.57301
C         88.27555      101.99910        1.62392
C         89.06537      100.74890        1.21529
C         88.13665       99.53919        1.04104
N         88.89755       98.34233        0.68316
H         90.06233      105.82813        1.98790
H         87.40911      104.49039        1.39236
H         90.06167      103.14898        2.22010
H         89.50808      103.35172        0.51958
H         87.44093      102.14737        0.90239
H         87.84541      101.85379        2.63860
H         89.83480      100.53712        1.98965
H         89.57698      100.92968        0.24428
H         87.40437       99.76006        0.23119
H         87.57312       99.34982        1.98076
H         89.44621       98.50784       -0.19208
H         89.54588       98.08665        1.46286
H         88.23441       97.55047        0.52015
N         86.90348      104.47040        3.97865
C         86.68653      104.62401        5.41295
C         86.79451      106.09384        5.81360
O         87.66225      106.39075        6.62184
C         85.37815      103.95278        5.89012
C         85.25607      103.99587        7.42781
C         84.07524      103.22681        7.95695
O         83.86376      103.17943        9.28593
O         83.31414      102.63452        7.20756
H         86.11903      104.19761        3.36702
H         87.48498      104.04660        5.93599
H         85.41955      102.88703        5.57313
H         84.47454      104.40657        5.44098
H         85.16570      105.05145        7.76319
H         86.17126      103.55797        7.88264
N         85.99262      107.09321        5.33166
C         84.93682      106.95691        4.34710
H         83.97232      107.27555        4.79538
H         85.15976      107.61315        3.48012
H         84.81667      105.93650        3.95758
H         86.14997      108.04908        5.68777
Ca        83.35015      120.87873        7.98130
O         83.21430      120.09803       10.89179
H         83.00702      119.40276       10.21780
H         84.11108      119.85217       11.23133
O         82.95829      121.10799        4.94263
H         83.94614      121.07469        4.88241
H         82.71413      121.98067        4.54395
O         81.66229      123.71389        6.70623
H         80.81732      123.23727        6.50740
H         81.87835      124.19810        5.87015
O         81.01416      122.51640        9.71871
H         80.55362      123.25709        9.25019
H         80.49998      122.39664       10.55631

Ca 1.0



