%chk=apoCaM-CA-Ng.loop1.water4.frame396.chk
%nprocshared=20
%mem=10GB
%nosave
#b3lyp/svp scf=(tight,noincore,xqc) Test 
#IOP(5/87=12) Density=Current Pop=(MK,readradii) iop(6/33=2) iop(6/42=6)

apoCaM-CA-Ng.loop1.water4.frame396 

   0  1 
C        -10.95026       81.71742       31.78286
C        -10.83307       80.22974       31.61001
O        -10.16727       79.78878       30.68424
H        -11.41782       82.16243       30.88015
H        -11.57642       81.97643       32.66370
H         -9.94218       82.15727       31.92997
N        -11.45802       79.38794       32.47829
C        -11.38203       77.93190       32.39002
C        -12.15701       77.36198       31.19981
O        -12.22638       76.14837       31.11571
C        -11.93383       77.28209       33.68769
C        -11.13017       77.63190       34.91429
O        -10.49860       76.65895       35.59964
O        -11.06087       78.78374       35.31099
H        -11.98473       79.80752       33.25920
H        -10.31707       77.61936       32.30909
H        -11.88491       76.17608       33.58343
H        -12.99801       77.56423       33.84139
N        -12.78249       78.12598       30.25554
C        -13.63939       77.54439       29.22370
C        -13.11088       77.75770       27.81869
O        -12.54180       78.81350       27.57929
C        -15.02905       78.20491       29.31320
C        -15.76434       77.86159       30.61100
C        -17.20291       78.38700       30.54874
C        -17.97560       78.05802       31.82877
N        -19.36346       78.50745       31.72316
H        -12.71028       79.15096       30.28157
H        -13.72620       76.46134       29.37761
H        -15.64905       77.86898       28.46892
H        -14.93860       79.30869       29.20551
H        -15.22308       78.30013       31.47735
H        -15.79946       76.75708       30.73105
H        -17.72010       77.91060       29.68547
H        -17.19558       79.48829       30.39497
H        -17.48632       78.55937       32.69306
H        -17.96156       76.95878       32.00252
H        -19.39828       79.53935       31.55595
H        -19.84153       78.00818       30.93754
H        -19.86362       78.28961       32.61471
N        -13.36544       76.89974       26.77063
C        -14.00158       75.57053       26.78670
C        -15.28942       75.46991       27.60702
O        -15.26390       74.86872       28.66892
C        -12.99962       74.44510       27.14358
C        -11.83669       74.40567       26.18942
O        -12.03852       74.38081       24.85873
O        -10.69696       74.39377       26.61423
H        -13.05463       77.21708       25.83855
H        -14.27373       75.32089       25.73935
H        -13.52739       73.47170       27.03881
H        -12.63799       74.53479       28.19079
N        -16.48631       75.97313       27.20766
C        -16.72829       76.57604       25.91146
C        -18.18813       76.97507       25.73741
O        -18.94142       76.95473       26.70080
H        -17.27164       75.84957       27.86492
H        -16.49753       75.80353       25.14924
H        -16.07299       77.45876       25.75403
N        -18.71207       77.29362       24.52169
C        -17.95983       77.27280       23.27281
C        -18.20855       75.97117       22.53756
O        -19.03541       75.18025       22.97551
C        -18.29267       78.52151       22.42598
C        -19.72889       78.62385       21.95835
O        -20.63470       77.66127       22.22326
O        -20.07584       79.59954       21.31317
H        -19.72939       77.45562       24.48156
H        -16.87162       77.30444       23.48417
H        -17.64159       78.53970       21.52667
H        -18.05790       79.42085       23.03582
N        -17.48901       75.65773       21.42362
C        -17.68151       74.40982       20.70667
C        -17.39568       73.19052       21.56100
O        -17.94602       72.14195       21.25628
H        -16.78587       76.32295       21.06810
H        -17.03936       74.37435       19.80063
H        -18.73965       74.37016       20.36601
N        -16.53153       73.23372       22.62135
C        -16.29268       72.08907       23.49726
C        -16.52162       72.51526       24.93738
O        -15.78552       73.35402       25.42874
C        -14.86141       71.53950       23.31134
C        -14.61918       71.11013       21.85778
O        -14.68795       70.42961       24.15476
H        -16.01723       74.10623       22.81753
H        -16.99339       71.26194       23.24706
H        -14.13122       72.33767       23.58266
H        -13.71256       70.25048       24.19951
H        -15.34819       70.32808       21.55619
H        -14.71277       71.97800       21.17152
H        -13.59513       70.69661       21.74900
N        -17.53610       71.98425       25.67237
C        -17.85486       72.41822       27.03601
C        -17.04397       71.68244       28.10941
O        -17.35024       71.86137       29.27800
C        -19.39559       72.34637       27.30449
C        -19.95699       70.89868       27.25498
C        -20.13918       73.29289       26.33990
C        -21.42484       70.80229       27.67955
H        -18.15461       71.30899       25.20438
H        -17.60726       73.49526       27.14838
H        -19.56688       72.73969       28.33211
H        -19.37323       70.26286       27.95380
H        -19.86835       70.46659       26.23799
H        -19.72859       74.32109       26.42459
H        -20.03635       72.95698       25.28700
H        -21.21638       73.36319       26.59031
H        -22.08791       71.35428       26.98319
H        -21.74285       69.73853       27.66646
H        -21.55680       71.19919       28.70827
N        -16.00412       70.84963       27.80655
C        -15.29598       70.03657       28.80692
C        -14.60590       70.80720       29.94142
O        -14.24557       70.17061       30.92169
C        -14.25504       69.11383       28.11751
C        -13.11435       69.91060       27.45085
O        -14.90613       68.32420       27.15579
H        -15.75083       70.73175       26.81727
H        -16.06912       69.39452       29.28494
H        -13.81578       68.44867       28.89711
H        -14.28085       67.59287       26.91122
H        -12.39110       69.21335       26.97891
H        -13.49554       70.59586       26.66718
H        -12.56177       70.51563       28.19743
N        -14.33781       72.14148       29.86411
C        -13.64353       72.93748       30.89014
C        -12.20472       72.45394       31.11453
O        -11.82974       71.41764       30.58660
C        -14.44980       72.99163       32.22411
C        -15.91490       73.40017       32.02175
O        -13.85116       73.86792       33.14584
H        -14.61764       72.62727       29.00609
H        -13.57474       73.97266       30.49318
H        -14.45775       71.98180       32.68478
H        -13.93568       74.78971       32.78410
H        -16.43808       72.65619       31.39595
H        -16.43340       73.43436       33.00342
H        -15.98700       74.39872       31.54216
N        -11.32141       73.19375       31.85337
C         -9.93800       72.79045       32.09664
C         -8.95004       73.63546       31.29574
O         -7.75918       73.36341       31.37969
C         -9.60952       72.88547       33.60362
C        -10.56594       72.06730       34.48463
C        -10.11798       72.11114       35.95565
C        -11.09233       71.40752       36.91677
N        -11.26443       69.98697       36.60823
H        -11.61786       74.09834       32.23710
H         -9.78379       71.73867       31.77160
H         -9.65178       73.95004       33.92786
H         -8.57189       72.51521       33.75984
H        -10.57164       71.01573       34.12976
H        -11.59210       72.48654       34.39912
H        -10.03881       73.17181       36.28142
H         -9.11153       71.64612       36.04654
H        -12.08099       71.91652       36.89066
H        -10.68587       71.50533       37.94853
H        -11.74971       69.86720       35.69085
H        -10.33774       69.50289       36.59227
H        -11.86143       69.55082       37.34766
N         -9.35662       74.65019       30.47708
C         -8.44503       75.43175       29.64922
C         -7.41950       76.15650       30.49587
O         -7.79771       76.96858       31.32924
C         -9.24065       76.45471       28.80169
C         -8.37816       77.25164       27.80667
C         -7.63702       76.36794       26.84087
O         -6.29161       76.40086       26.79653
O         -8.24500       75.62383       26.08925
H        -10.35821       74.85472       30.39869
H         -7.93750       74.72581       28.95537
H         -9.76566       77.16985       29.47091
H        -10.02427       75.92287       28.23972
H         -7.64891       77.87366       28.36695
H         -9.03832       77.93461       27.22944
N         -6.09142       75.91757       30.30897
C         -5.04476       76.59623       31.04412
H         -4.38911       77.13529       30.32816
H         -5.44613       77.33267       31.77129
H         -4.43799       75.84837       31.59498
H         -5.79769       75.22781       29.60086
Ca       -10.24078       74.64962       23.51296
O         -7.79054       76.92468       23.30716
H         -7.14757       76.79194       22.56617
H         -7.27860       77.42399       23.99186
O        -11.48672       72.26975       22.34395
H        -11.92613       72.95409       21.77849
H        -10.59348       72.14568       21.93549
O         -7.82767       74.09473       21.69052
H         -7.66423       73.28458       21.14576
H         -8.21101       74.74961       21.05414
O         -8.55689       72.42158       24.85876
H         -9.13227       71.63237       25.02165
H         -7.71750       72.04678       24.49090

Ca 1.0



