%chk=apoCaM-CA-Ng.loop1.water3.frame481.chk
%nprocshared=20
%mem=10GB
%nosave
#b3lyp/svp scf=(tight,noincore,xqc) Test 
#IOP(5/87=12) Density=Current Pop=(MK,readradii) iop(6/33=2) iop(6/42=6)

apoCaM-CA-Ng.loop1.water3.frame481 

   0  1 
C         59.44471       62.80573       89.21286
C         59.39386       62.85596       87.71551
O         58.51336       62.22730       87.14499
H         58.48022       63.17486       89.62305
H         59.60009       61.75810       89.54462
H         60.26359       63.43724       89.61476
N         60.30105       63.59052       87.00675
C         60.25313       63.71061       85.55453
C         61.48896       63.10776       84.89777
O         62.10546       63.75259       84.06761
C         59.98338       65.18782       85.17152
C         60.99319       66.16652       85.72464
O         62.16798       66.10741       85.40035
O         60.59310       67.12929       86.57807
H         61.03899       64.10036       87.51638
H         59.40780       63.12062       85.15486
H         58.98501       65.46879       85.57392
H         59.93851       65.28478       84.06955
N         61.90356       61.84847       85.21797
C         63.06060       61.19885       84.59653
C         62.75329       59.73811       84.27333
O         62.28254       59.06295       85.17897
C         64.27073       61.23270       85.55824
C         64.78002       62.66553       85.79575
C         66.12706       62.72757       86.53286
C         66.06393       62.20704       87.97387
N         67.35786       62.37197       88.63763
H         61.41413       61.35530       85.98024
H         63.36527       61.74142       83.68815
H         65.09736       60.66232       85.08245
H         64.01676       60.74088       86.52126
H         64.01855       63.26735       86.33612
H         64.95191       63.13565       84.80933
H         66.44662       63.79242       86.55874
H         66.89097       62.15570       85.95979
H         65.78815       61.13078       87.97904
H         65.29110       62.77611       88.53595
H         67.28998       62.01413       89.61746
H         68.09653       61.83287       88.12960
H         67.62090       63.38429       88.66697
N         63.05784       59.09933       83.09301
C         63.67040       59.64346       81.87486
C         64.94614       60.42622       82.14956
O         64.97621       61.61631       81.87602
C         62.65721       60.47208       81.05964
C         61.50136       59.66823       80.55258
O         61.40527       58.34053       80.74803
O         60.61264       60.23670       79.93820
H         62.86880       58.08416       83.07002
H         63.95308       58.79252       81.22340
H         63.15748       60.89823       80.16288
H         62.26395       61.30335       81.68098
N         66.06661       59.86896       82.67588
C         66.24870       58.44341       82.89028
C         67.54416       58.14990       83.63534
O         68.15010       59.06827       84.17006
H         66.84879       60.51223       82.86976
H         66.24403       57.95542       81.89382
H         65.42057       58.02531       83.50010
N         68.02718       56.88567       83.78943
C         67.45886       55.70957       83.14054
C         67.72203       55.71421       81.63651
O         68.51368       56.51275       81.15351
C         68.02943       54.40396       83.75379
C         69.51358       54.20434       83.52987
O         70.41730       55.05570       84.05171
O         69.90692       53.24146       82.89154
H         68.83635       56.77520       84.41531
H         66.36330       55.71128       83.33237
H         67.48936       53.54114       83.30640
H         67.82538       54.38951       84.84561
N         67.09099       54.80499       80.84321
C         67.35253       54.62022       79.42548
C         67.15470       55.86372       78.59650
O         68.06489       56.21016       77.85490
H         66.39852       54.17469       81.27458
H         66.66634       53.83572       79.04113
H         68.39385       54.25188       79.28870
N         65.99295       56.57930       78.64368
C         65.76380       57.74521       77.78375
C         66.84215       58.79809       77.99818
O         67.57007       58.73523       78.97982
C         64.34804       58.35043       78.00338
C         63.21745       57.36322       77.68530
O         64.15860       59.52514       77.25489
H         65.26043       56.27064       79.29932
H         65.84814       57.39815       76.72964
H         64.26421       58.63093       79.06795
H         64.15281       59.27637       76.29409
H         62.24218       57.85473       77.88407
H         63.25500       57.06514       76.61583
H         63.27453       56.45052       78.31028
N         67.04119       59.75878       77.05165
C         68.13113       60.72314       77.10730
C         67.62964       62.15461       77.26453
O         68.47010       63.02701       77.44398
C         69.11043       60.49599       75.90237
C         68.47343       60.48637       74.48269
C         69.83701       59.14882       76.08930
C         67.80450       61.78840       74.06575
H         66.42786       59.77518       76.22580
H         68.73013       60.56704       78.03143
H         69.89396       61.28501       75.93421
H         67.73955       59.65724       74.38621
H         69.28006       60.29063       73.74092
H         69.11947       58.30046       76.05872
H         70.59027       58.99532       75.28625
H         70.37376       59.12530       77.06105
H         68.52896       62.62766       74.11666
H         67.44392       61.69248       73.01884
H         66.92632       61.99774       74.70104
N         66.30027       62.48340       77.24696
C         65.80570       63.83739       77.49248
C         64.61993       63.80873       78.46192
O         63.64727       63.11148       78.20603
C         65.50005       64.56603       76.15941
C         64.37850       63.93625       75.33389
O         66.66060       64.60304       75.36658
H         65.60129       61.75948       77.03119
H         66.61077       64.45091       77.95506
H         65.18729       65.61206       76.38592
H         67.30724       65.20853       75.81607
H         64.24805       64.51823       74.39641
H         64.62286       62.88800       75.06621
H         63.41664       63.96728       75.88239
N         64.65137       64.54328       79.61112
C         63.59889       64.54354       80.63956
C         62.22234       65.00445       80.12773
O         62.09445       65.33780       78.95902
C         64.08188       65.35640       81.88090
C         64.30512       66.84569       81.61472
O         65.28673       64.81949       82.35983
H         65.50153       65.09969       79.78235
H         63.45805       63.49611       80.97910
H         63.32652       65.30737       82.68798
H         65.06792       63.93698       82.74891
H         63.37516       67.32710       81.27057
H         64.62131       67.33804       82.56007
H         65.09717       67.01599       80.85929
N         61.13713       65.02223       80.97120
C         59.76987       65.36057       80.55910
C         58.74536       64.26353       80.92267
O         57.58722       64.43705       80.56532
C         59.32807       66.69706       81.20874
C         60.17834       67.89497       80.75707
C         59.69442       69.20129       81.40606
C         60.52428       70.40407       80.93082
N         60.04842       71.64547       81.54294
H         61.28334       64.79930       81.96201
H         59.72541       65.49288       79.45611
H         59.36754       66.61055       82.31380
H         58.27585       66.91147       80.91792
H         60.11361       67.98975       79.65091
H         61.23242       67.72760       81.04002
H         59.77568       69.11573       82.51223
H         58.62883       69.37197       81.13852
H         60.44835       70.49282       79.82410
H         61.59374       70.25049       81.19758
H         60.13730       71.59229       82.58370
H         60.62697       72.44428       81.19514
H         59.04964       71.81596       81.28285
N         59.06233       63.13087       81.62733
C         58.07649       62.10423       82.00421
C         56.96774       62.68408       82.86857
O         57.24622       63.27879       83.89998
C         58.76667       60.93341       82.75819
C         57.81482       59.90633       83.41676
C         56.81183       59.19878       82.52808
O         55.62189       59.41217       82.69398
O         57.17435       58.17719       81.72375
H         60.03770       62.98322       81.92144
H         57.62633       61.67074       81.08476
H         59.38183       61.35239       83.58308
H         59.45373       60.41582       82.07338
H         57.25086       60.44326       84.20925
H         58.41993       59.13525       83.94129
N         55.66610       62.46344       82.53244
C         54.56437       62.87671       83.37321
H         53.60444       62.53408       82.92957
H         54.66289       62.41278       84.37915
H         54.54630       63.98104       83.46931
H         55.44457       61.93614       81.67438
Ca        59.28401       57.77965       81.10988
O         57.60986       58.14901       78.08859
H         58.00283       58.39550       77.21366
H         56.68048       57.88125       77.87637
O         60.55929       54.70971       80.68621
H         60.81401       54.03419       80.00835
H         61.41257       54.95538       81.12428
O         60.04494       56.22073       77.79286
H         60.81715       55.66044       78.05618
H         60.26701       56.53265       76.87967

Ca 1.0



