%chk=apoCaM-CA-Ng.loop4.water4.frame755.chk
%nprocshared=20
%mem=10GB
%nosave
#b3lyp/svp scf=(tight,noincore,xqc) Test 
#IOP(5/87=12) Density=Current Pop=(MK,readradii) iop(6/33=2) iop(6/42=6)

apoCaM-CA-Ng.loop4.water4.frame755 

   -3  1 
C         13.29494       38.69759       -1.87341
C         14.42966       38.78568       -2.85345
O         14.57761       37.90246       -3.68498
H         12.67566       37.79629       -2.05725
H         13.69634       38.65394       -0.83896
H         12.64428       39.59233       -1.97179
N         15.26337       39.86265       -2.81845
C         16.39094       40.08823       -3.72224
C         15.92850       40.06634       -5.16963
O         16.50705       39.35106       -5.97555
C         17.51875       39.05500       -3.49336
C         17.89636       38.94744       -2.05345
O         18.39355       39.99218       -1.36001
O         17.71166       37.88604       -1.47735
H         15.07384       40.59473       -2.11573
H         16.79859       41.09820       -3.49423
H         18.41509       39.31881       -4.09367
H         17.16469       38.05332       -3.82671
N         14.83464       40.77529       -5.56044
C         14.30461       40.66789       -6.91954
C         15.24925       41.32145       -7.92975
O         15.98006       42.22127       -7.53857
C         12.86476       41.26514       -7.03444
C         12.83365       42.79243       -6.76083
C         11.89494       40.48481       -6.12300
C         11.47232       43.42804       -7.04309
H         14.33219       41.32294       -4.84748
H         14.22396       39.58173       -7.14494
H         12.51344       41.11616       -8.07491
H         13.55702       43.29516       -7.43633
H         13.12573       43.01651       -5.71412
H         10.84704       40.80889       -6.27943
H         11.93433       39.40091       -6.36454
H         12.14673       40.61521       -5.05009
H         11.17212       43.23703       -8.09571
H         10.69235       43.03930       -6.35891
H         11.54179       44.52531       -6.88978
N         15.28343       40.98286       -9.25702
C         14.59335       39.82797       -9.83153
C         15.29244       38.51962       -9.46878
O         14.70215       37.46670       -9.66638
C         14.33298       39.97995      -11.34666
C         15.56381       40.03690      -12.21383
O         16.43386       41.05946      -12.11534
O         15.74732       39.17942      -13.06226
H         15.90639       41.53611       -9.85928
H         13.58041       39.78102       -9.39098
H         13.73590       40.90243      -11.51814
H         13.70774       39.11780      -11.67017
N         16.51390       38.51465       -8.85869
C         17.08812       37.34194       -8.22800
C         17.49380       36.20961       -9.13478
O         17.39830       36.28818      -10.35141
H         17.02164       39.39873       -8.71510
H         16.35760       36.95704       -7.48453
H         18.00370       37.64965       -7.67579
N         17.99538       35.09711       -8.52941
C         18.51486       33.91304       -9.20611
C         17.49852       33.15886      -10.06233
O         17.92081       32.25453      -10.77046
C         19.17503       32.97490       -8.15639
C         18.27987       32.61801       -6.98795
O         18.62521       32.99774       -5.74258
O         17.24375       32.00105       -7.14904
H         18.05673       35.13021       -7.50002
H         19.31747       34.24669       -9.90075
H         20.05262       33.51171       -7.73552
H         19.55617       32.05286       -8.64000
N         16.16764       33.46082      -10.08424
C         15.21323       32.78652      -10.95728
C         14.95976       31.32188      -10.63513
O         14.13351       30.73502      -11.31731
H         15.80567       34.22503       -9.49843
H         15.55226       32.88163      -12.01265
H         14.23383       33.30514      -10.87084
N         15.59750       30.66680       -9.61833
C         15.36637       29.27673       -9.23832
C         13.98111       29.05304       -8.64637
O         13.63462       27.90078       -8.42572
C         15.70221       28.30480      -10.40299
C         17.16225       28.44713      -10.87432
C         18.13733       28.14250       -9.76180
N         18.98311       29.09419       -9.30429
O         18.15244       27.02836       -9.25987
H         16.29492       31.16379       -9.06877
H         16.05856       29.01715       -8.40781
H         15.02683       28.47002      -11.26681
H         15.54820       27.25538      -10.06786
H         17.31996       29.47716      -11.25953
H         17.35382       27.74443      -11.71364
H         18.97809       30.03981       -9.70909
H         19.63704       28.88956       -8.53422
N         13.16480       30.09504       -8.28985
C         11.83796       29.90105       -7.70330
C         11.70298       30.48095       -6.29521
O         10.67595       30.22144       -5.68113
C         10.74447       30.49535       -8.63328
C         10.85278       32.02684       -8.76904
C         10.79272       29.84096      -10.02077
H         13.48677       31.05967       -8.43698
H         11.63468       28.81251       -7.59988
H          9.75028       30.26539       -8.18959
H         11.81267       32.33079       -9.23541
H         10.02690       32.41187       -9.40266
H         10.76997       32.51613       -7.77544
H         10.67607       28.74032       -9.93125
H          9.97108       30.23041      -10.65774
H         11.75594       30.05516      -10.52710
N         12.64759       31.28931       -5.72525
C         12.50236       31.86952       -4.38875
C         13.68219       31.47391       -3.51427
O         14.64357       30.91098       -4.02564
C         12.40531       33.40606       -4.53248
C         12.19394       34.12472       -3.22307
N         13.12394       34.98811       -2.75180
O         11.17751       33.91745       -2.57641
H         13.49346       31.53881       -6.25778
H         11.57549       31.49214       -3.90325
H         11.55348       33.65904       -5.20060
H         13.33639       33.77143       -5.01838
H         13.99088       35.17226       -3.27737
H         12.98463       35.46354       -1.84853
N         13.66879       31.71210       -2.16837
C         14.80399       31.37523       -1.31193
C         14.42272       31.39181        0.17163
O         13.31210       31.78399        0.50403
C         15.96323       32.36148       -1.61679
C         17.32566       31.83382       -1.25839
C         18.12592       32.47018       -0.29900
C         17.82701       30.70922       -1.93558
C         19.40716       31.98468       -0.01698
C         19.10706       30.22825       -1.65747
C         19.90241       30.86216       -0.69879
O         21.13900       30.38843       -0.44722
H         12.80839       32.09464       -1.75382
H         15.08228       30.32706       -1.55949
H         15.74071       33.33730       -1.12918
H         16.02225       32.56838       -2.70633
H         17.76266       33.34054        0.22458
H         17.23131       30.21468       -2.69316
H         20.01618       32.48545        0.72472
H         19.48242       29.36648       -2.19489
H         21.72569       30.80030        0.20251
N         15.27270       30.90320        1.11933
C         14.91256       30.78312        2.53070
C         15.96935       31.44039        3.41010
O         16.71500       30.72670        4.06824
C         14.72816       29.29188        2.88951
C         13.57844       28.65877        2.09087
C         13.29105       27.26507        2.56554
O         12.07738       26.96452        3.06705
O         14.14836       26.39905        2.49869
H         16.18253       30.51891        0.82264
H         13.93245       31.24842        2.75726
H         14.47177       29.23058        3.97157
H         15.66878       28.72329        2.71477
H         13.83107       28.63378        1.00915
H         12.65975       29.27122        2.22430
N         16.12046       32.79194        3.51490
C         15.26683       33.79259        2.88176
C         13.85481       33.74115        3.42691
O         13.67601       33.57032        4.62567
C         15.80407       35.21511        3.13426
C         17.17802       35.42345        2.48653
C         17.62523       36.85562        2.50880
O         18.22935       37.28926        1.39678
O         17.11598       37.66927        3.26450
H         16.88781       33.12643        4.11927
H         15.25508       33.64131        1.77998
H         15.85574       35.43422        4.22382
H         15.09272       35.93268        2.66353
H         17.06782       35.14825        1.41547
H         17.96341       34.77672        2.92613
N         12.79752       33.95935        2.59831
C         11.43222       33.96561        3.07427
H         10.74183       34.20453        2.23731
H         11.16966       32.96722        3.48217
H         11.30770       34.73668        3.86480
H         12.96632       34.15638        1.60022
Ca        18.24526       39.43309        0.79413
O         18.74655       41.60600        2.81359
H         18.20314       42.14858        3.43798
H         19.68410       41.81855        3.04965
O         20.89775       39.03761        2.90090
H         21.20275       39.73085        3.53877
H         21.24021       38.18770        3.27590
O         21.03433       38.09574       -0.29372
H         20.67058       37.20924       -0.54312
H         22.01412       37.95980       -0.24982
O         20.95674       41.21613        0.43624
H         21.24159       42.04117        0.90349
H         20.53386       41.53803       -0.39900

Ca 1.0



