%chk=apoCaM-CA-Ng.loop1.water3.frame456.chk
%nprocshared=20
%mem=10GB
%nosave
#b3lyp/svp scf=(tight,noincore,xqc) Test 
#IOP(5/87=12) Density=Current Pop=(MK,readradii) iop(6/33=2) iop(6/42=6)

apoCaM-CA-Ng.loop1.water3.frame456 

   0  1 
C         80.89427       75.08084       58.42348
C         79.60480       75.56781       57.83072
O         78.91420       74.80280       57.17278
H         81.73808       75.69687       58.04899
H         80.84586       75.16999       59.53042
H         81.07591       74.01707       58.16236
N         79.20418       76.84761       58.05713
C         77.92474       77.37956       57.59772
C         77.86355       77.60792       56.08248
O         76.82597       78.06163       55.63297
C         77.60313       78.71685       58.31612
C         77.48146       78.58221       59.81419
O         78.44010       78.25552       60.49504
O         76.30919       78.85844       60.41763
H         79.81342       77.44004       58.64164
H         77.11979       76.66810       57.88545
H         76.62083       79.08524       57.95025
H         78.37320       79.48127       58.07695
N         78.89408       77.34095       55.22491
C         78.84990       77.68548       53.80063
C         78.75016       76.44310       52.92960
O         79.50414       75.51248       53.17678
C         80.11300       78.47122       53.37444
C         80.15414       79.94482       53.81876
C         80.29605       80.20567       55.32392
C         81.57654       79.62836       55.95336
N         82.79203       80.17032       55.34047
H         79.75169       76.89548       55.57704
H         77.99001       78.32888       53.58630
H         80.11271       78.52089       52.26399
H         81.03667       77.92482       53.66043
H         79.23277       80.44612       53.45891
H         80.99842       80.43768       53.29341
H         79.41361       79.80581       55.85648
H         80.29292       81.30672       55.47867
H         81.58292       78.52060       55.87896
H         81.57050       79.89105       57.03399
H         82.78402       81.21557       55.37862
H         83.62380       79.81958       55.86722
H         82.88196       79.84971       54.35013
N         77.93679       76.34999       51.82242
C         77.01405       77.36680       51.29416
C         77.71477       78.68513       50.99596
O         77.46355       79.66533       51.68020
C         75.72775       77.49922       52.13569
C         74.93529       76.22719       52.11679
O         73.92311       76.13178       52.79113
O         75.36068       75.17143       51.39712
H         78.01002       75.48208       51.26846
H         76.60776       77.02136       50.32005
H         75.07841       78.29650       51.71344
H         75.96165       77.73798       53.18435
N         78.54180       78.84261       49.92391
C         78.77707       77.81760       48.91994
C         80.21727       77.73478       48.49592
O         81.04085       78.48280       49.00378
H         78.91299       79.78813       49.74429
H         78.17830       78.08231       48.03219
H         78.46387       76.81794       49.26324
N         80.62864       76.82734       47.56408
C         79.74531       75.84490       46.92471
C         78.71923       76.47747       45.98233
O         78.80008       77.66542       45.69892
C         80.59452       74.78400       46.18351
C         81.48618       75.36659       45.11665
O         82.82396       75.24730       45.22396
O         81.00925       75.94119       44.15148
H         81.63891       76.80140       47.35421
H         79.19428       75.30323       47.72317
H         79.94238       74.00901       45.72945
H         81.23672       74.27661       46.93676
N         77.73447       75.70696       45.42861
C         76.79323       76.20860       44.43680
C         75.78878       77.22339       44.94871
O         75.15510       77.85541       44.11568
H         77.69309       74.70391       45.66357
H         76.21033       75.36503       44.00672
H         77.38100       76.65939       43.60874
N         75.53637       77.40262       46.27719
C         74.58095       78.38851       46.78447
C         75.32737       79.28654       47.74018
O         75.82833       78.76298       48.72045
C         73.40306       77.68586       47.50651
C         72.65907       76.72222       46.57347
O         72.50536       78.66000       47.97267
H         76.02734       76.81041       46.96448
H         74.15737       78.99946       45.95718
H         73.80573       77.10274       48.36877
H         71.91874       78.21693       48.64077
H         72.24739       77.26707       45.69767
H         73.33772       75.91857       46.21855
H         71.81946       76.24129       47.12017
N         75.46843       80.63103       47.53281
C         76.30307       81.45658       48.40809
C         75.43932       82.36225       49.26914
O         75.66370       83.56078       49.34162
C         77.45341       82.15643       47.60732
C         76.95786       83.25619       46.62696
C         78.28181       81.09301       46.85485
C         78.10252       84.01825       45.95109
H         74.99478       81.07149       46.73089
H         76.81162       80.81184       49.15232
H         78.11863       82.64230       48.35642
H         76.37817       84.02041       47.17541
H         76.29655       82.82415       45.84801
H         77.67153       80.59867       46.06827
H         79.18190       81.53025       46.38130
H         78.64869       80.32025       47.54981
H         78.68264       83.36492       45.26976
H         77.68654       84.84714       45.34160
H         78.78330       84.45095       46.71607
N         74.43813       81.80513       50.00657
C         73.57673       82.55723       50.91414
C         73.74407       82.08194       52.35684
O         73.06161       82.60590       53.22642
C         72.10775       82.46178       50.43256
C         71.51509       81.04863       50.55967
O         72.04985       82.88840       49.09436
H         74.28422       80.78920       49.92700
H         73.84991       83.63510       50.89769
H         71.49890       83.15087       51.06181
H         71.09169       82.94317       48.84213
H         72.08010       80.31795       49.95235
H         71.51663       80.71807       51.61780
H         70.46131       81.05068       50.20991
N         74.64310       81.10322       52.68293
C         74.88094       80.56310       54.01904
C         73.66818       79.78065       54.51394
O         72.61970       79.83809       53.88853
C         75.38235       81.66181       54.99674
C         76.57414       82.44104       54.41037
O         75.74365       81.10870       56.23625
H         75.22853       80.69731       51.94479
H         75.70233       79.82618       53.91782
H         74.57149       82.39392       55.18552
H         76.57797       80.58817       56.09890
H         76.92195       83.20535       55.13600
H         77.41592       81.75376       54.18676
H         76.28633       82.96139       53.47293
N         73.76617       78.96176       55.60188
C         72.65915       78.15732       56.10157
C         72.94472       76.67122       55.92538
O         72.12894       75.99455       55.31347
C         72.34995       78.51427       57.56989
C         72.05403       80.01875       57.71667
C         71.38908       80.35582       59.05608
C         71.09754       81.86272       59.14695
N         70.27130       82.17298       60.31286
H         74.65954       78.89350       56.09890
H         71.72815       78.37746       55.53189
H         73.18493       78.23450       58.25012
H         71.44950       77.93033       57.86305
H         71.34500       80.32640       56.91732
H         72.99836       80.59467       57.59175
H         72.02758       80.04398       59.91152
H         70.42759       79.79934       59.10646
H         70.55338       82.19630       58.23523
H         72.05821       82.42255       59.20243
H         70.11087       83.20568       60.35266
H         69.34330       81.69757       60.22209
H         70.74344       81.86300       61.19215
N         74.08030       76.09491       56.41646
C         74.38045       74.66583       56.31609
C         74.58848       74.11549       57.70774
O         75.46602       74.59208       58.41530
C         75.62033       74.42508       55.42326
C         76.14486       72.96574       55.42364
C         75.11439       71.89020       55.13891
O         74.86753       71.05965       55.99798
O         74.48572       71.79608       53.95109
H         74.76887       76.69563       56.89409
H         73.54148       74.11708       55.83435
H         76.45821       75.07338       55.75846
H         75.36468       74.73106       54.39308
H         76.57331       72.76780       56.42994
H         76.97910       72.88242       54.69355
N         73.81957       73.08415       58.15395
C         73.96812       72.48507       59.46264
H         73.00519       72.55971       60.00832
H         74.23579       71.41414       59.34490
H         74.75630       72.97972       60.06782
H         73.09835       72.68582       57.53344
Ca        75.03041       73.18353       52.30694
O         74.09176       73.30706       48.67751
H         73.12161       73.16999       48.53352
H         74.49991       73.13937       47.79129
O         72.14464       73.59102       51.43644
H         72.73170       74.23249       50.96351
H         71.40356       73.42266       50.80244
O         73.47672       70.56449       50.33049
H         73.21961       70.30915       49.40890
H         72.62491       70.82756       50.76119

Ca 1.0



