%chk=apoCaM-CA-Ng.loop2.water4.frame257.chk
%nprocshared=20
%mem=10GB
%nosave
#b3lyp/svp scf=(tight,noincore,xqc) Test 
#IOP(5/87=12) Density=Current Pop=(MK,readradii) iop(6/33=2) iop(6/42=6)

apoCaM-CA-Ng.loop2.water4.frame257 

   -2  1 
C         33.76500       11.07366        5.18409
C         34.02757        9.59807        5.12623
O         35.04306        9.15036        5.63938
H         32.82410       11.25783        5.74315
H         34.59688       11.60325        5.69580
H         33.66353       11.48069        4.15561
N         33.15198        8.78049        4.47994
C         33.33022        7.33986        4.36213
C         33.70166        7.02657        2.93665
O         32.97482        7.41098        2.02877
C         32.03436        6.61098        4.77405
C         32.13800        5.10281        4.74193
O         31.06333        4.36282        5.07183
O         33.17575        4.53882        4.43007
H         32.33907        9.20890        4.00845
H         34.14527        6.99008        5.03333
H         31.20726        6.92101        4.09804
H         31.76893        6.90966        5.81001
N         34.83653        6.32339        2.66291
C         35.25215        6.06012        1.29683
C         35.66299        7.35645        0.62507
O         35.88571        8.34904        1.30679
C         36.41413        5.05701        1.27355
H         35.40576        5.96081        3.44379
H         34.39405        5.60575        0.75353
H         37.29026        5.45718        1.82893
H         36.09702        4.10733        1.75758
H         36.72242        4.82855        0.23182
N         35.79965        7.40641       -0.72519
C         36.26275        8.58385       -1.44292
C         37.59351        8.20149       -2.04665
O         37.72379        8.07631       -3.25673
C         35.19181        9.02244       -2.46453
C         35.53030       10.31167       -3.17141
O         36.66555       10.98595       -2.89718
O         34.75059       10.76528       -3.99284
H         35.59540        6.55579       -1.27357
H         36.42770        9.44322       -0.75475
H         34.23396        9.18831       -1.92334
H         35.03233        8.21807       -3.21454
N         38.62942        7.94885       -1.20060
C         39.90423        7.39928       -1.61108
C         41.05416        8.35396       -1.40119
O         42.18574        7.89089       -1.43743
H         38.49613        8.11434       -0.19046
H         39.90716        7.07845       -2.67470
H         40.07040        6.48881       -0.99453
N         40.87114        9.70267       -1.27315
C         42.00332       10.61945       -1.20440
C         42.57223       10.66560        0.20258
O         41.84570       10.96960        1.13859
C         41.61896       12.03575       -1.67252
C         42.86405       12.88823       -1.81654
N         43.03158       14.01967       -1.09696
O         43.73994       12.54069       -2.59577
H         39.91927       10.09254       -1.34832
H         42.76656       10.27212       -1.93842
H         40.88837       12.48647       -0.96771
H         41.13811       11.97459       -2.67348
H         42.31242       14.34228       -0.44103
H         43.89252       14.57753       -1.19616
N         43.88754       10.39816        0.41058
C         44.53107       10.42193        1.71206
C         44.55271       11.79545        2.35611
O         44.98248       12.74864        1.72166
H         44.47463       10.15018       -0.40036
H         45.59241       10.12678        1.56697
H         44.06502        9.66686        2.38125
N         44.21607       11.93439        3.67138
C         44.41726       13.17108        4.42703
C         43.46737       14.28550        4.00019
O         43.94801       15.37553        3.72545
C         44.42386       12.92903        5.96624
C         43.11155       12.43082        6.58399
O         45.48120       12.06576        6.31497
H         43.91969       11.08820        4.17866
H         45.45628       13.52705        4.23353
H         44.64697       13.90643        6.44928
H         45.23353       11.14170        6.05111
H         42.81293       11.44656        6.17213
H         43.24663       12.32476        7.68256
H         42.29918       13.15544        6.41427
N         42.12105       14.08248        3.88926
C         41.17955       15.13137        3.47072
C         40.65087       14.84451        2.07539
O         40.99902       13.82106        1.50875
C         39.99382       15.27493        4.47611
C         39.16545       13.96532        4.58959
C         40.48514       15.78060        5.83911
C         37.79678       14.17901        5.23475
H         41.75882       13.13209        4.05248
H         41.69559       16.11337        3.39646
H         39.31967       16.06487        4.08907
H         39.73387       13.19151        5.14826
H         38.95253       13.56668        3.57472
H         41.03249       16.73855        5.70945
H         39.63442       15.97447        6.52239
H         41.16341       15.05186        6.31687
H         37.88383       14.55215        6.27310
H         37.20800       14.90321        4.62975
H         37.24405       13.21572        5.25218
N         39.76110       15.70314        1.48262
C         39.16204       15.44918        0.17682
C         39.30054       16.64510       -0.77892
O         39.04491       16.46024       -1.96234
C         37.69223       15.04306        0.41880
C         36.99386       14.37887       -0.73590
O         37.55953       14.17621       -1.79734
O         35.73424       13.93570       -0.56393
H         39.43265       16.51972        2.01096
H         39.68262       14.58487       -0.28732
H         37.11359       15.92865        0.76200
H         37.67911       14.28862        1.23614
N         39.68600       17.89210       -0.36321
C         39.91068       19.02492       -1.25953
C         38.87666       20.11710       -1.00423
O         38.71051       20.49744        0.15033
C         41.35504       19.53895       -1.04700
C         41.77577       20.60478       -2.04148
C         42.74942       20.30521       -3.01229
C         41.22002       21.89930       -2.01681
C         43.14211       21.26842       -3.94611
C         41.61611       22.85928       -2.95360
C         42.57363       22.54322       -3.91932
H         39.84888       18.07385        0.63684
H         39.84811       18.68427       -2.31265
H         42.02115       18.65640       -1.16883
H         41.50029       19.91565       -0.01056
H         43.20052       19.32187       -3.05499
H         40.48347       22.17574       -1.27611
H         43.88670       21.02451       -4.69276
H         41.17995       23.84980       -2.93090
H         42.87778       23.28667       -4.64489
N         38.17587       20.72141       -2.01700
C         37.22249       21.80890       -1.83401
C         36.05570       21.45803       -0.92986
O         35.78084       22.19257        0.00641
C         36.71270       22.09674       -3.25620
C         37.93033       21.77714       -4.08553
C         38.41088       20.48400       -3.43289
H         37.77311       22.69556       -1.44358
H         35.94121       21.35369       -3.55944
H         36.28592       23.11275       -3.39537
H         37.75918       21.70653       -5.18061
H         38.68388       22.57564       -3.89215
H         37.81523       19.60149       -3.75225
H         39.48052       20.36351       -3.70103
N         35.30841       20.34662       -1.18563
C         34.09067       19.99233       -0.45469
C         34.30095       19.76200        1.03582
O         33.30861       19.68148        1.74749
C         33.46587       18.72356       -1.08700
C         34.36328       17.49123       -0.84770
C         33.97104       16.31007       -1.67259
O         34.87825       15.80475       -2.53096
O         32.87896       15.78141       -1.54156
H         35.59335       19.76042       -1.98356
H         33.38609       20.84466       -0.58077
H         33.35249       18.90834       -2.17852
H         32.45363       18.52578       -0.67013
H         34.34466       17.21009        0.22744
H         35.41475       17.72728       -1.11112
N         35.54317       19.58184        1.56970
C         35.77589       19.31194        2.97350
H         36.45060       20.08801        3.38937
H         34.83790       19.30646        3.56766
H         36.26029       18.31808        3.07761
H         36.37123       19.59633        0.96003
Ca        34.67147       13.84216       -3.60902
O         37.05094       15.80462       -4.74388
H         37.68425       15.48775       -4.05353
H         37.51018       15.61597       -5.59999
O         36.75846       12.79628       -5.74508
H         37.47029       12.21288       -5.38017
H         36.03154       12.17397       -5.99894
O         32.65604       13.26722       -5.63920
H         33.36246       13.79407       -6.09157
H         32.28262       13.88489       -4.96073
O         32.68622       12.44694       -1.81333
H         32.50059       12.65812       -0.86423
H         32.24645       13.17561       -2.31953

Ca 1.0



