%chk=apoCaM-CA-Ng.loop3.water5.frame79.chk
%nprocshared=20
%mem=10GB
%nosave
#b3lyp/svp scf=(tight,noincore,xqc) Test 
#IOP(5/87=12) Density=Current Pop=(MK,readradii) iop(6/33=2) iop(6/42=6)

apoCaM-CA-Ng.loop3.water5.frame79 

   0  1 
C         64.16274       70.22209       34.88943
C         65.41907       70.91961       34.46130
O         65.56927       71.18758       33.28068
H         63.49759       70.03952       34.01679
H         64.41268       69.24847       35.35827
H         63.61692       70.85553       35.61980
N         66.37077       71.25521       35.38134
C         67.60061       71.98374       35.06303
C         68.53177       71.19370       34.14411
O         69.44042       71.78600       33.57722
C         67.27671       73.38574       34.48098
C         66.43418       74.23955       35.39674
O         66.12644       75.36750       35.04750
O         66.02010       73.78768       36.59746
H         66.20437       71.00638       36.36829
H         68.17003       72.15971       36.00210
H         66.75781       73.29436       33.50572
H         68.22800       73.93176       34.30157
N         68.40354       69.84356       33.98387
C         69.23654       69.06533       33.06758
C         68.97422       69.55081       31.65334
O         69.90716       69.87532       30.93303
C         68.90534       67.56062       33.21865
C         69.79646       66.60197       32.40267
C         71.27772       66.65147       32.82700
C         72.13216       65.53921       32.19239
N         72.19676       65.63755       30.73401
H         67.68076       69.34508       34.52387
H         70.30313       69.20927       33.34089
H         67.84431       67.38756       32.93450
H         69.01243       67.28219       34.29070
H         69.69020       66.81670       31.31900
H         69.41947       65.57292       32.59264
H         71.33514       66.51271       33.92896
H         71.72088       67.63748       32.57492
H         71.72997       64.54322       32.48309
H         73.16371       65.61989       32.60285
H         72.84083       64.89569       30.37528
H         71.25436       65.48168       30.31166
H         72.56892       66.57288       30.45138
N         67.68408       69.71655       31.24835
C         67.26468       70.29834       29.97760
C         67.93170       71.66142       29.77253
O         67.91936       72.46620       30.69246
C         65.71651       70.41273       29.99449
C         65.15748       70.76665       28.65925
O         64.36524       69.91965       28.00288
O         65.44355       71.81172       28.11971
H         66.94762       69.45874       31.92312
H         67.55364       69.60749       29.15454
H         65.38363       71.15628       30.74793
H         65.29066       69.42277       30.27069
N         68.57407       71.96966       28.60390
C         69.32447       73.21041       28.40066
C         68.50803       74.50166       28.44098
O         69.11207       75.56376       28.42307
H         68.58127       71.27349       27.84256
H         69.84065       73.17152       27.41582
H         70.10602       73.26217       29.18760
N         67.14850       74.49265       28.47109
C         66.28199       75.66548       28.55164
C         65.35125       75.58734       29.77232
O         64.61111       76.53263       30.00716
C         65.43572       75.71028       27.25714
C         64.49447       76.88678       27.17484
N         64.96726       78.15312       27.14171
O         63.28879       76.69031       27.12937
H         66.69121       73.59384       28.40242
H         66.89711       76.58782       28.63177
H         64.84226       74.76974       27.19994
H         66.10763       75.74063       26.37288
H         65.97991       78.33836       27.16686
H         64.31677       78.95064       27.08187
N         65.30403       74.48319       30.57441
C         64.36699       74.29293       31.66642
C         62.94425       74.15551       31.17548
O         62.67299       74.37046       30.00281
H         65.93256       73.69736       30.40485
H         64.46615       75.09796       32.42557
H         64.61399       73.32821       32.15595
N         61.96985       73.76905       32.04280
C         60.58445       73.56336       31.63061
C         60.44357       72.24571       30.84982
O         61.41455       71.51519       30.71122
C         59.67340       73.67609       32.88186
C         58.19656       73.59474       32.57883
C         57.58079       74.51700       31.70833
C         57.42523       72.56608       33.14165
C         56.22616       74.38425       31.38530
C         56.07181       72.44134       32.82282
C         55.46924       73.34490       31.93654
O         54.16819       73.22115       31.60617
H         62.22911       73.60625       33.02877
H         60.30065       74.39807       30.95374
H         59.86207       74.66171       33.36216
H         59.96621       72.88503       33.60560
H         58.15153       75.31875       31.25694
H         57.87518       71.84867       33.81595
H         55.76689       75.08297       30.69685
H         55.49645       71.63452       33.25799
H         53.61507       72.50876       31.95778
N         59.25281       71.91339       30.27241
C         59.02220       70.76433       29.40759
C         58.58208       71.31938       28.06438
O         59.23941       71.04218       27.07346
C         57.95751       69.79651       30.00921
C         58.41210       69.30243       31.40783
C         57.73877       68.59136       29.06407
C         57.38623       68.41494       32.11894
H         58.45915       72.53954       30.39613
H         59.95921       70.17806       29.27342
H         56.99653       70.34674       30.11994
H         58.58760       70.17892       32.06367
H         59.36988       68.74419       31.31813
H         57.44957       68.91310       28.04789
H         58.66894       67.99124       28.97175
H         56.92053       67.93661       29.42505
H         57.21177       67.46754       31.57013
H         57.76970       68.14504       33.12547
H         56.42419       68.95647       32.23891
N         57.51303       72.16755       27.95910
C         57.13099       72.77242       26.68948
C         56.52013       71.75331       25.74460
O         56.47431       72.02570       24.55490
C         56.16516       73.94647       26.89843
O         56.77354       74.90794       27.71773
H         56.99226       72.43607       28.80781
H         58.05452       73.18757       26.22439
H         55.23021       73.58001       27.37857
H         55.92854       74.40246       25.91036
H         56.13221       75.66175       27.78593
N         56.03663       70.55922       26.20574
C         55.49512       69.49709       25.36039
C         56.54688       68.87612       24.44934
O         56.17436       68.00720       23.66364
C         54.26824       69.99013       24.57781
H         56.02816       70.38168       27.21750
H         55.13327       68.67985       26.02369
H         53.50964       70.39231       25.28268
H         54.52534       70.77486       23.83972
H         53.80531       69.14420       24.02546
N         57.86981       69.21173       24.50731
C         58.88914       68.63306       23.64523
C         59.91532       67.84970       24.43696
O         59.94804       67.94676       25.66084
C         59.58242       69.75216       22.86498
H         58.19219       69.90047       25.19959
H         58.42177       67.92724       22.92408
H         60.06226       70.46321       23.57325
H         60.36143       69.34423       22.18804
H         58.83804       70.31097       22.25992
N         60.75341       66.99272       23.78657
C         61.76826       66.15941       24.42360
C         61.17436       65.39520       25.59284
O         61.65408       65.50645       26.71278
C         63.01005       66.99690       24.78885
C         63.64190       67.60152       23.51786
C         64.81791       68.44848       23.86546
O         64.69091       69.77886       23.77095
O         65.79090       67.96685       24.42529
H         60.63576       66.88211       22.76581
H         62.11765       65.40298       23.68733
H         63.76315       66.34482       25.28558
H         62.72708       67.80421       25.49960
H         62.88945       68.24859       23.01853
H         63.95829       66.80725       22.80962
N         60.08982       64.60117       25.38545
C         59.45548       63.86665       26.45660
H         58.58471       63.30297       26.05969
H         60.17532       63.14857       26.90224
H         59.09676       64.57028       27.23803
H         59.69314       64.52618       24.43698
Ca        64.36677       70.47132       25.84130
O         62.33742       73.27437       27.01579
H         62.84805       73.10319       27.84593
H         61.75886       74.04851       27.23074
O         61.71297       69.86309       26.92233
H         61.82134       70.66231       27.49625
H         61.57530       70.22809       26.01167
O         62.49746       71.68653       23.53715
H         62.64464       71.40899       22.59809
H         61.84444       72.42801       23.47877
O         63.78182       74.33309       24.61173
H         63.60359       75.30664       24.62615
H         64.09446       74.15092       23.69045
O         66.52954       72.91799       25.33319
H         67.19270       72.19133       25.22178
H         66.83775       73.63279       24.72119

Ca 1.0



