%chk=apoCaM-CA-Ng.loop4.water4.frame471.chk
%nprocshared=20
%mem=10GB
%nosave
#b3lyp/svp scf=(tight,noincore,xqc) Test 
#IOP(5/87=12) Density=Current Pop=(MK,readradii) iop(6/33=2) iop(6/42=6)

apoCaM-CA-Ng.loop4.water4.frame471 

   -3  1 
C         37.32063       50.89552      103.30057
C         36.70984       51.69123      104.40894
O         35.89940       51.14411      105.12383
H         38.41537       50.82097      103.47187
H         36.90150       49.86439      103.28929
H         37.12028       51.38161      102.32647
N         37.07548       52.98519      104.62270
C         36.67289       53.80218      105.76665
C         37.30430       53.26699      107.03369
O         36.59988       52.90141      107.95373
C         35.15710       54.17928      105.82241
C         34.06497       53.14047      105.98932
O         33.89993       52.44929      107.13861
O         33.21700       53.03360      105.11733
H         37.75116       53.40488      103.96644
H         37.15965       54.79630      105.64140
H         34.94981       54.72628      104.87683
H         35.02151       54.91001      106.64969
N         38.67402       53.23459      107.11258
C         39.52512       52.84842      108.24513
C         39.47059       53.88160      109.37222
O         40.49008       54.50075      109.64505
C         39.30174       51.38607      108.72219
C         40.35743       50.93213      109.77629
C         39.28710       50.40968      107.53397
C         41.81482       50.91638      109.28583
H         39.18812       53.53142      106.26837
H         40.56339       52.88557      107.85011
H         38.30834       51.31893      109.20437
H         40.10344       49.90134      110.10762
H         40.30200       51.58786      110.67064
H         40.22655       50.46061      106.94776
H         39.15516       49.37525      107.90319
H         38.44169       50.63492      106.85192
H         42.16912       51.93140      109.01758
H         42.47436       50.53977      110.09570
H         41.94162       50.24634      108.41213
N         38.31792       54.15229      110.04343
C         38.18368       55.18461      111.05484
C         38.89676       54.81293      112.35007
O         39.70094       55.63007      112.77624
C         36.69916       55.55062      111.26586
C         36.09527       56.13750      110.01359
O         36.54858       57.16424      109.53230
O         35.04277       55.54140      109.42437
H         37.47081       53.63839      109.81430
H         38.64338       56.12698      110.67108
H         36.61265       56.31227      112.07106
H         36.11620       54.65790      111.54361
N         38.74162       53.64625      113.05638
C         37.96102       52.46753      112.69840
C         36.52256       52.52540      113.17645
O         36.09983       53.57390      113.64127
H         39.34353       53.53459      113.88722
H         38.42439       51.60798      113.22438
H         38.05877       52.24497      111.62356
N         35.68547       51.43906      113.15914
C         36.07289       50.05996      112.81866
C         36.50856       49.94788      111.35994
O         36.30170       50.90707      110.63227
C         34.88258       49.09819      113.09028
C         34.27278       49.28089      114.45350
O         35.01958       49.12748      115.56274
O         33.09242       49.57731      114.55664
H         34.72357       51.60543      113.49326
H         36.91357       49.78430      113.48947
H         35.19586       48.04639      113.03504
H         34.09514       49.26470      112.32227
N         37.09950       48.85013      110.79783
C         37.46063       47.58758      111.41331
C         38.64068       47.71545      112.32684
O         39.14921       48.81030      112.52567
H         37.35525       48.92180      109.81256
H         37.79345       46.90035      110.60296
H         36.60328       47.08343      111.88251
N         39.17996       46.58566      112.85931
C         40.40860       46.58371      113.64000
C         41.55975       45.93010      112.87017
O         42.69662       46.08420      113.29347
C         40.14448       46.04953      115.06191
C         39.48622       44.66261      115.16527
C         40.33757       43.56637      114.61219
N         41.57550       43.34535      115.10294
O         39.89865       42.85617      113.72372
H         38.72438       45.68395      112.64898
H         40.75697       47.63091      113.77677
H         39.43920       46.75865      115.54763
H         41.08885       46.07779      115.64478
H         38.49643       44.66808      114.65911
H         39.30300       44.44095      116.23739
H         41.96107       43.92537      115.86065
H         42.15102       42.58961      114.72343
N         41.35474       45.30616      111.67092
C         42.41547       44.98861      110.71539
C         42.52385       43.50414      110.38449
O         43.36746       43.16743      109.56408
C         42.19615       45.84283      109.42232
C         42.49313       47.32302      109.69772
C         40.77880       45.72034      108.82704
H         40.39419       45.12545      111.35972
H         43.41473       45.25879      111.12214
H         42.92341       45.51295      108.64813
H         43.54072       47.44110      110.04690
H         42.37837       47.91220      108.76375
H         41.80723       47.73594      110.46775
H         40.00966       46.15155      109.50326
H         40.72484       46.30501      107.88676
H         40.51848       44.66401      108.60962
N         41.74948       42.55723      110.98452
C         41.84904       41.13335      110.68234
C         40.55581       40.60416      110.08153
O         40.50930       39.40974      109.81778
C         42.20168       40.31748      111.95249
C         43.52511       40.68506      112.58446
N         44.68118       40.63403      111.88461
O         43.56020       40.99712      113.76264
H         41.05511       42.84598      111.67845
H         42.64207       40.93811      109.92897
H         42.27028       39.24220      111.67712
H         41.38603       40.42357      112.70289
H         44.69370       40.35662      110.89421
H         45.57351       40.87357      112.34346
N         39.47948       41.40475      109.79516
C         38.25082       40.84865      109.23050
C         37.29444       41.88776      108.66062
O         37.27225       43.02654      109.10377
C         37.53232       39.93079      110.25369
C         37.33107       40.57806      111.61506
C         38.01526       40.06081      112.73151
C         36.47847       41.68267      111.79978
C         37.85852       40.63666      113.99483
C         36.32576       42.25998      113.06537
C         37.01461       41.74161      114.16559
O         36.86118       42.31240      115.37765
H         39.54048       42.42125      109.94691
H         38.54920       40.24334      108.34519
H         38.16002       39.02658      110.38783
H         36.56281       39.57066      109.84740
H         38.67973       39.21233      112.62644
H         35.92423       42.10304      110.97645
H         38.39923       40.22659      114.83861
H         35.67000       43.11269      113.19111
H         37.32843       41.98911      116.16144
N         36.44368       41.48756      107.66306
C         35.41166       42.26418      106.97570
C         35.89931       43.31634      105.98495
O         35.24094       43.47635      104.96499
C         34.31361       42.81759      107.90574
C         33.61287       41.68983      108.68036
C         32.34222       42.17660      109.31712
O         32.36733       43.17181      110.22289
O         31.27371       41.67438      109.00318
H         36.50198       40.49869      107.37488
H         34.87598       41.53820      106.32069
H         33.55336       43.30469      107.25369
H         34.70790       43.58864      108.60365
H         34.29320       41.27507      109.45256
H         33.34886       40.86993      107.97656
N         36.95932       44.13163      106.22391
C         37.29215       45.25516      105.35326
C         37.97205       44.82187      104.06480
O         38.18558       45.67623      103.21512
C         38.18294       46.25415      106.11899
C         37.55143       46.72781      107.44745
C         36.36754       47.62652      107.25701
O         35.36447       47.25943      106.66982
O         36.43055       48.85188      107.79141
H         37.49949       44.01063      107.08003
H         36.35313       45.77651      105.07665
H         38.42188       47.14084      105.48913
H         39.13493       45.73494      106.35112
H         38.32241       47.29499      108.00390
H         37.26279       45.88397      108.10192
N         38.35452       43.52948      103.84766
C         39.00008       43.08447      102.62934
H         40.00390       42.67848      102.87327
H         38.38937       42.28211      102.16581
H         39.12298       43.90166      101.88785
H         38.20211       42.81497      104.57275
Ca        35.19753       50.66630      107.49999
O         32.04853       50.59379      108.54784
H         31.58936       50.90183      109.36880
H         31.54534       51.01408      107.80622
O         33.97090       52.48253      110.16821
H         33.71892       53.39771      109.89201
H         34.21547       52.57359      111.12215
O         33.74795       48.34021      109.48969
H         34.11521       47.57484      108.98263
H         32.78992       48.11830      109.60194
O         33.07383       49.55178      105.80022
H         33.64835       48.76177      105.64993
H         33.38574       50.20842      105.12926

Ca 1.0



