%chk=apoCaM-CA-Ng.loop1.water3.frame148.chk
%nprocshared=20
%mem=10GB
%nosave
#b3lyp/svp scf=(tight,noincore,xqc) Test 
#IOP(5/87=12) Density=Current Pop=(MK,readradii) iop(6/33=2) iop(6/42=6)

apoCaM-CA-Ng.loop1.water3.frame148 

   0  1 
C         72.28330       44.29063       63.49358
C         71.24378       44.54833       62.44249
O         70.80012       43.61476       61.78899
H         73.21311       44.83932       63.23367
H         71.91766       44.64719       64.48003
H         72.51437       43.20714       63.56779
N         70.79342       45.81638       62.23920
C         69.76573       46.15335       61.25667
C         70.26400       46.10837       59.80638
O         69.46963       46.39435       58.92398
C         69.11007       47.51489       61.59791
C         69.99757       48.72242       61.45480
O         69.66358       49.62412       60.70604
O         71.11792       48.85776       62.18887
H         71.15396       46.54827       62.86749
H         68.93754       45.41749       61.36475
H         68.73537       47.47638       62.64379
H         68.22376       47.64977       60.93756
N         71.54068       45.74338       59.47779
C         72.06819       45.71081       58.11343
C         72.38821       44.27434       57.71942
O         73.06007       43.61453       58.50052
C         73.37127       46.53437       58.04215
C         73.21365       48.03098       58.35621
C         72.36063       48.77557       57.31321
C         72.41309       50.30431       57.48009
N         71.80211       50.75709       58.72774
H         72.19286       45.46297       60.22195
H         71.36021       46.14790       57.40153
H         73.81340       46.43886       57.02554
H         74.10364       46.10696       58.76246
H         74.23602       48.46773       58.33558
H         72.80059       48.15945       59.37846
H         71.30515       48.43045       57.34602
H         72.77311       48.55227       56.30570
H         71.86404       50.76714       56.63021
H         73.46949       50.64913       57.43099
H         70.79417       50.48686       58.73128
H         72.29470       50.35747       59.55763
H         71.86646       51.79924       58.77922
N         72.02814       43.68992       56.53139
C         71.31309       44.29018       55.40437
C         72.02990       45.53376       54.87796
O         71.45879       46.61425       54.92411
C         69.81856       44.53259       55.70513
C         69.13453       43.28882       56.19360
O         68.53778       43.29918       57.25788
O         69.17848       42.15817       55.46430
H         72.34238       42.71712       56.38330
H         71.30064       43.54829       54.57374
H         69.34050       44.84671       54.75402
H         69.65785       45.33624       56.44223
N         73.27685       45.48227       54.32632
C         73.98615       44.23312       54.10066
C         75.29706       44.40241       53.34892
O         75.73211       45.52414       53.12955
H         73.68827       46.36978       53.99927
H         73.33152       43.60062       53.46520
H         74.18819       43.71912       55.06309
N         75.97757       43.32864       52.84913
C         75.49158       41.95328       52.93853
C         74.69480       41.60615       51.69697
O         74.66987       42.38837       50.75528
C         76.63206       40.95001       53.23094
C         77.66802       40.83703       52.13824
O         77.82850       39.77385       51.56037
O         78.45870       41.88028       51.82340
H         76.79291       43.52982       52.25377
H         74.78475       41.86396       53.78739
H         76.17812       39.94673       53.38643
H         77.13981       41.23322       54.17745
N         73.96714       40.45600       51.64803
C         73.14730       40.10646       50.50492
C         72.03198       41.10526       50.29607
O         72.00039       41.74542       49.25394
H         73.98936       39.80593       52.44793
H         72.69007       39.10511       50.66138
H         73.79357       40.04806       49.60177
N         71.04339       41.24939       51.22579
C         69.88105       42.10733       50.99271
C         70.24235       43.58397       51.14213
O         71.33407       43.90832       51.58745
C         68.69090       41.69592       51.90328
C         68.29597       40.22867       51.67371
O         67.57098       42.49313       51.62022
H         71.07863       40.65652       52.06907
H         69.54514       41.94162       49.94383
H         68.99698       41.84095       52.96174
H         66.95349       42.42021       52.39201
H         68.00246       40.07310       50.61289
H         69.12506       39.53535       51.91875
H         67.43292       39.96488       52.32042
N         69.36296       44.53157       50.71058
C         69.61594       45.97031       50.70359
C         68.51982       46.76002       51.41188
O         68.64218       47.97901       51.44456
C         69.76642       46.46671       49.23080
C         68.56566       46.02114       48.34797
C         71.10984       45.98166       48.66016
C         68.55951       46.62186       46.94595
H         68.48144       44.21073       50.29150
H         70.55786       46.21155       51.24626
H         69.81353       47.57900       49.24244
H         67.61674       46.32447       48.84101
H         68.56492       44.91623       48.23184
H         71.28804       46.39193       47.64687
H         71.94184       46.34521       49.30219
H         71.15080       44.87350       48.61896
H         67.66475       46.25105       46.40134
H         68.50945       47.72849       47.00373
H         69.45361       46.31405       46.36844
N         67.44224       46.17152       52.01205
C         66.40189       46.94162       52.69144
C         66.43677       46.67533       54.17479
O         67.03135       45.69303       54.59830
C         65.00116       46.67652       52.08961
C         64.56228       45.21012       52.20102
O         64.99053       47.04528       50.73528
H         67.36759       45.14619       52.02811
H         66.60647       48.02932       52.57818
H         64.24456       47.27985       52.64604
H         64.87601       48.03133       50.70656
H         64.54205       44.88236       53.26175
H         63.54068       45.09409       51.78196
H         65.23860       44.54281       51.62817
N         65.90158       47.58144       55.03669
C         66.04460       47.46544       56.47928
C         64.70945       47.55757       57.18800
O         63.68599       47.81473       56.56638
C         67.07115       48.52107       56.99033
C         66.66824       49.97127       56.70235
O         68.31774       48.29478       56.38580
H         65.45379       48.42834       54.65104
H         66.45798       46.46750       56.74568
H         67.18890       48.43603       58.09469
H         68.67417       47.45434       56.77051
H         65.69499       50.21698       57.17411
H         67.44200       50.65533       57.11424
H         66.60817       50.15828       55.60982
N         64.67522       47.34804       58.52839
C         63.49398       47.47562       59.36688
C         63.20248       46.15675       60.07274
O         62.05729       45.72922       60.07031
C         63.75588       48.64869       60.32743
C         62.54048       49.05711       61.17855
C         62.80135       50.36720       61.95801
C         62.93699       51.63904       61.08320
N         61.67826       52.00394       60.42707
H         65.56901       47.13443       58.99444
H         62.60283       47.75678       58.76074
H         64.02715       49.50021       59.67396
H         64.62464       48.43041       60.98828
H         62.33492       48.23985       61.90323
H         61.63788       49.17614       60.54535
H         63.73365       50.23841       62.54963
H         61.96979       50.53791       62.67489
H         63.74042       51.53411       60.32590
H         63.23876       52.48228       61.74219
H         60.94677       52.20207       61.14821
H         61.82734       52.87086       59.86113
H         61.34957       51.24959       59.78513
N         64.20731       45.42728       60.64250
C         64.01719       44.16056       61.33667
C         64.68421       44.27891       62.68894
O         65.89743       44.43616       62.74415
C         64.64468       43.00452       60.52263
C         63.82571       42.68708       59.25714
C         64.46913       41.64087       58.38526
O         63.89592       41.26423       57.37553
O         65.67704       41.12730       58.68712
H         65.17527       45.76892       60.57580
H         62.93687       43.93583       61.47971
H         64.67198       42.07856       61.14040
H         65.68973       43.27593       60.25223
H         63.68950       43.60161       58.64389
H         62.82494       42.31633       59.57342
N         63.94688       44.25005       63.83066
C         64.55650       44.40582       65.13278
H         65.09761       45.37570       65.18249
H         63.77467       44.39640       65.92066
H         65.26937       43.57526       65.31979
H         62.92304       44.14183       63.77700
Ca        68.23282       40.24899       56.22068
O         66.08030       41.78527       54.87365
H         65.43662       41.67832       54.12936
H         65.93946       42.71021       55.19717
O         69.61794       41.26492       58.86438
H         69.30423       41.13837       59.79447
H         70.59082       41.08594       58.89711
O         67.41759       38.67402       58.77897
H         67.30975       37.69024       58.78999
H         66.95925       38.98256       59.60046

Ca 1.0



