%chk=apoCaM-CA-Ng.loop3.water6.frame1101.chk
%nprocshared=20
%mem=10GB
%nosave
#b3lyp/svp scf=(tight,noincore,xqc) Test 
#IOP(5/87=12) Density=Current Pop=(MK,readradii) iop(6/33=2) iop(6/42=6)

apoCaM-CA-Ng.loop3.water6.frame1101 

   0  1 
C         40.07084       96.23982       43.67808
C         41.37000       96.99189       43.65213
O         41.35789       98.19186       43.87419
H         39.38076       96.66716       42.92063
H         40.22008       95.16341       43.44804
H         39.60821       96.32624       44.68331
N         42.53433       96.34754       43.36570
C         43.83535       97.00634       43.29685
C         44.38926       96.98765       41.87620
O         45.55020       97.32990       41.69731
C         44.80448       96.37644       44.33020
C         45.16269       94.92355       44.13485
O         45.99297       94.33174       45.01419
O         44.72712       94.27402       43.19987
H         42.49293       95.33835       43.16012
H         43.75437       98.07867       43.58091
H         44.34952       96.48370       45.33863
H         45.75318       96.95566       44.32698
N         43.59465       96.65803       40.80765
C         44.03181       96.58242       39.41331
C         44.46508       97.91231       38.80937
O         44.81151       97.91540       37.63595
C         45.10990       95.49416       39.24214
C         44.56693       94.13358       39.69966
C         45.62360       93.03678       39.59019
C         45.06057       91.70492       40.10170
N         46.06774       90.64954       40.02703
H         42.60720       96.41722       40.97108
H         43.15589       96.26500       38.80448
H         46.01951       95.75824       39.82144
H         45.39711       95.41611       38.17034
H         43.68104       93.86369       39.08299
H         44.24429       94.20194       40.75690
H         46.50645       93.31858       40.20510
H         45.94081       92.92985       38.52996
H         44.17510       91.41519       39.49270
H         44.73403       91.82237       41.15987
H         45.65497       89.75889       40.38661
H         46.36813       90.51075       39.03507
H         46.89432       90.90222       40.61616
N         44.45841       99.08171       39.50937
C         44.80725      100.35876       38.90178
C         45.22689      101.34849       39.98394
O         46.32015      101.88729       39.88485
C         43.68813      100.84047       37.92663
C         42.37742      101.22047       38.56914
O         41.21561      100.56900       38.32679
O         42.34117      102.19312       39.30377
H         44.19711       99.07595       40.50067
H         45.71756      100.21099       38.27477
H         43.50241      100.04621       37.17482
H         44.05672      101.73189       37.37335
N         44.44223      101.58540       41.07665
C         44.82506      102.44064       42.18797
C         46.00194      101.86712       42.97652
O         47.08054      101.79838       42.40604
H         43.52137      101.12932       41.14354
H         43.93372      102.58437       42.81382
H         45.08178      103.45560       41.81534
N         45.95202      101.46851       44.28780
C         44.77593      101.42781       45.15877
C         44.62771      100.03903       45.77895
O         45.61985       99.33281       45.87711
C         44.94795      102.47583       46.27528
C         45.10253      103.86583       45.70870
N         44.11173      104.43418       44.98265
O         46.13684      104.48512       45.90834
H         46.84648      101.17812       44.71551
H         43.85582      101.64460       44.60500
H         45.85211      102.22051       46.87269
H         44.07774      102.47084       46.96215
H         43.22875      103.93290       44.80897
H         44.22744      105.38090       44.59195
N         43.43762       99.55245       46.24140
C         42.16755      100.25584       46.12586
C         40.99418       99.46898       46.67679
O         41.17862       98.39178       47.23558
H         43.45593       98.60882       46.66067
H         41.96569      100.44494       45.05015
H         42.21143      101.22698       46.65907
N         39.73095       99.95327       46.52667
C         38.53598       99.26864       47.00860
C         37.65839       98.84578       45.83433
O         37.90452       99.27305       44.70948
C         37.79536      100.22613       47.97415
C         36.53931       99.66187       48.59156
C         35.29289      100.24888       48.31234
C         36.59763       98.55590       49.45625
C         34.12467       99.73203       48.87735
C         35.42644       98.04134       50.02257
C         34.18506       98.62740       49.73194
O         33.04698       98.13803       50.26371
H         39.60807      100.85213       46.02866
H         38.82419       98.34126       47.55136
H         37.54904      101.15102       47.40599
H         38.48176      100.52065       48.79827
H         35.22207      101.10439       47.65209
H         37.54781       98.09280       49.69009
H         33.17090      100.19067       48.64824
H         35.48422       97.18648       50.68417
H         33.04238       97.37072       50.85328
N         36.63954       97.95982       46.01586
C         35.75745       97.50431       44.93677
C         34.93414       98.64983       44.35765
O         34.96861       99.75199       44.88115
C         34.82471       96.33291       45.39178
C         35.65565       95.04555       45.61065
C         33.96312       96.69818       46.62125
C         34.79916       93.81073       45.89849
H         36.52581       97.55926       46.95602
H         36.39704       97.12931       44.10674
H         34.12681       96.10847       44.55765
H         36.39226       95.18142       46.43050
H         36.21660       94.83625       44.67254
H         33.21872       95.90458       46.83213
H         34.57783       96.81910       47.53372
H         33.39846       97.63618       46.44227
H         34.27548       93.90376       46.87111
H         34.05289       93.66020       45.08881
H         35.45051       92.91308       45.94747
N         34.18362       98.43463       43.23240
C         33.40641       99.47791       42.56837
C         33.93789       99.71625       41.16230
O         34.75785       98.94482       40.68980
C         31.92108       99.09290       42.55768
O         31.73787       97.88113       41.87376
H         34.18650       97.49794       42.80505
H         33.51234      100.43573       43.12078
H         31.31776       99.88780       42.06885
H         31.58939       98.99179       43.61803
H         30.90291       97.47737       42.22777
N         33.55477      100.83518       40.47099
C         34.12172      101.25567       39.18736
C         33.72300      100.38531       38.00312
O         34.25180      100.60977       36.92267
C         35.65037      101.39394       39.29661
H         32.88805      101.47875       40.92067
H         33.73592      102.27319       38.95789
H         36.15311      100.41600       39.43776
H         36.05698      101.85030       38.37089
H         35.91193      102.05630       40.14836
N         32.77844       99.40571       38.10612
C         32.37798       98.53023       37.00875
C         33.56069       97.69948       36.55075
O         33.84282       97.61935       35.36221
C         31.71167       99.31721       35.86327
H         32.31519       99.24507       39.01179
H         31.61810       97.82213       37.40748
H         31.34804       98.62076       35.07756
H         30.84316       99.89078       36.24961
H         32.41738      100.02813       35.38563
N         34.32701       97.07198       37.48488
C         35.47939       96.25288       37.14632
C         34.97645       94.95146       36.54034
O         35.35538       94.61458       35.42804
C         36.30423       95.95996       38.42105
C         37.68090       95.32032       38.15337
C         38.77570       96.33971       37.90477
O         39.67826       96.42977       38.72224
O         38.79338       97.18124       36.85110
H         34.09468       97.21171       38.48037
H         36.13453       96.82105       36.44940
H         35.70724       95.27945       39.06450
H         36.46559       96.88774       39.01451
H         37.62813       94.54689       37.35844
H         37.96645       94.80106       39.09458
N         34.08965       94.18135       37.24231
C         33.54625       92.92282       36.77583
H         32.44013       93.00316       36.70798
H         33.94555       92.62960       35.78407
H         33.79384       92.12555       37.50922
H         33.76385       94.50469       38.16598
Ca        40.40301       98.79033       37.14084
O         38.08953      100.60339       37.25370
H         37.46590       99.83766       37.18202
H         38.44130      100.55081       38.17802
O         42.53505       96.80464       36.23718
H         42.69173       97.77785       36.15047
H         43.16861       96.39690       35.59572
O         42.24846       99.74948       34.19674
H         41.85117       99.64960       33.29532
H         43.12632       99.29630       34.13262
O         39.86066      101.53273       34.93924
H         39.37364      102.34549       35.22617
H         39.76372      101.52021       33.95392
O         40.84627       96.37601       33.83684
H         40.20393       96.14305       33.12081
H         40.50283       95.90789       34.63900
O         38.91152       98.79494       33.60046
H         37.95915       98.55206       33.48188
H         39.31320       98.67070       32.70380

Ca 1.0



