%chk=apoCaM-CA-Ng.loop4.water3.frame22.chk
%nprocshared=20
%mem=10GB
%nosave
#b3lyp/svp scf=(tight,noincore,xqc) Test 
#IOP(5/87=12) Density=Current Pop=(MK,readradii) iop(6/33=2) iop(6/42=6)

apoCaM-CA-Ng.loop4.water3.frame22 

   -3  1 
C         92.42741       55.55694       43.53658
C         93.30692       56.73230       43.23662
O         92.78441       57.83326       43.18427
H         91.62976       55.48459       42.76766
H         93.00338       54.60919       43.54869
H         91.95685       55.69999       44.53264
N         94.64588       56.56422       43.00654
C         95.61170       57.62600       42.72231
C         95.17041       59.02118       43.25615
O         95.37828       60.02052       42.31729
C         96.08478       57.54519       41.24923
C         94.98730       57.63408       40.22256
O         94.26119       58.75486       40.08165
O         94.77940       56.69206       39.47430
H         95.01388       55.60130       42.99051
H         96.53452       57.39828       43.30196
H         96.59050       56.56280       41.11876
H         96.84573       58.33100       41.04885
N         95.78510       59.28956       44.58064
C         95.59498       60.55431       45.34757
C         96.65580       61.58963       44.98279
O         97.52655       61.84214       45.80512
C         94.13837       61.10986       45.40455
C         94.01693       62.36690       46.31804
C         93.14185       60.03837       45.88433
C         94.47257       62.18119       47.77467
H         95.47429       58.50299       45.19876
H         95.83885       60.27340       46.39696
H         93.82906       61.42077       44.38542
H         92.95237       62.68060       46.33562
H         94.60468       63.20326       45.88312
H         92.11090       60.45421       45.91290
H         93.13075       59.17799       45.19608
H         93.40078       59.65944       46.89347
H         93.91247       61.37039       48.28229
H         95.55919       61.96690       47.83130
H         94.29421       63.11992       48.34023
N         96.68415       62.19893       43.76914
C         97.77649       63.05757       43.33813
C         97.76192       64.43630       43.99020
O         98.77266       64.77047       44.59171
C         97.82212       63.17331       41.79947
C         98.03878       61.82755       41.15499
O         97.23263       61.39232       40.34993
O         99.13363       61.10109       41.45363
H         95.95029       61.99218       43.09129
H         98.73726       62.55801       43.60731
H         98.67772       63.82172       41.50952
H         96.88956       63.62673       41.41010
N         96.74416       65.34750       43.89011
C         95.41815       65.12571       43.33653
C         95.24032       65.77158       41.97669
O         96.22966       66.19246       41.39400
H         96.90969       66.28818       44.28107
H         94.68431       65.52692       44.06650
H         95.20489       64.05854       43.23081
N         94.02154       65.87866       41.36120
C         92.73427       65.59351       42.00216
C         92.59498       64.15327       42.46529
O         93.32076       63.30346       41.97212
C         91.56356       65.93264       41.04879
C         91.54764       67.39068       40.68874
O         91.39402       68.32072       41.65065
O         91.66290       67.73869       39.52456
H         94.01210       66.27822       40.40937
H         92.69566       66.24714       42.89842
H         90.58431       65.69361       41.51138
H         91.65393       65.31316       40.12910
N         91.71781       63.78123       43.44901
C         90.78992       64.66213       44.13904
C         91.16780       64.77916       45.58802
O         92.31378       65.10983       45.85918
H         91.73223       62.80928       43.76702
H         89.75217       64.28278       44.01786
H         90.80203       65.68647       43.73346
N         90.23221       64.63401       46.57366
C         90.53652       64.90741       47.97857
C         89.99005       63.86273       48.94428
O         90.29085       63.98025       50.12580
C         89.94394       66.27642       48.36271
C         90.43819       67.40618       47.44173
C         89.84388       68.74841       47.78120
N         90.14484       69.82251       47.01709
O         89.08293       68.87599       48.72991
H         89.25226       64.47578       46.29601
H         91.63923       64.95159       48.12482
H         90.22621       66.51708       49.41206
H         88.83485       66.21818       48.29423
H         90.14572       67.18042       46.39479
H         91.54663       67.47536       47.49691
H         90.77573       69.72937       46.20710
H         89.73850       70.74555       47.22780
N         89.16410       62.84738       48.55382
C         88.59332       61.87869       49.48782
C         87.06474       61.93585       49.51842
O         86.48611       61.12829       50.23078
C         89.10066       60.44522       49.16945
C         90.63107       60.37034       49.28120
C         88.65001       59.95210       47.79220
H         88.90850       62.75104       47.56285
H         88.91980       62.09479       50.52990
H         88.67828       59.75136       49.93040
H         90.95594       60.67798       50.29807
H         90.97777       59.32973       49.10732
H         91.11921       61.03316       48.53471
H         87.54267       59.97294       47.71101
H         89.08661       60.58391       46.99790
H         88.98675       58.90712       47.62848
N         86.34218       62.88053       48.83476
C         84.88576       62.97870       48.94894
C         84.18232       63.23203       47.61361
O         82.97855       63.45829       47.64432
C         84.51868       63.98316       50.07075
C         84.83373       65.43558       49.81192
N         83.88851       66.38451       50.02053
O         85.95847       65.76867       49.47177
H         86.83539       63.62275       48.32091
H         84.47382       62.01657       49.32576
H         85.07375       63.67544       50.98348
H         83.43620       63.88229       50.30879
H         82.94749       66.13205       50.35897
H         84.10683       67.38263       49.88585
N         84.82038       63.13868       46.40330
C         84.12187       63.34667       45.13142
C         84.94658       62.89490       43.92567
O         86.08793       63.30964       43.77958
C         83.72751       64.83377       44.93597
C         83.05494       65.02776       43.58847
C         83.65728       65.82939       42.60280
C         81.85145       64.36482       43.28730
C         83.07898       65.94570       41.33420
C         81.27761       64.48030       42.01781
C         81.89192       65.26206       41.03484
O         81.33958       65.34036       39.80726
H         85.81232       62.85793       46.37710
H         83.19207       62.73711       45.14283
H         84.65074       65.45208       44.99286
H         83.04288       65.17502       45.74003
H         84.58800       66.34435       42.80472
H         81.36800       63.73957       44.02676
H         83.56516       66.55073       40.57929
H         80.36134       63.94855       41.79367
H         81.74713       65.84726       39.09048
N         84.34816       62.12391       42.96124
C         84.93057       61.72507       41.67666
C         86.03317       60.68786       41.82040
O         86.59950       60.28362       40.81602
C         85.37511       62.97485       40.86997
C         85.65507       62.76714       39.36447
C         84.41816       62.43112       38.56758
O         83.75939       61.27318       38.76077
O         84.02032       63.20540       37.71152
H         83.36544       61.84684       43.10995
H         84.11785       61.22818       41.11343
H         86.29014       63.39610       41.33606
H         84.57685       63.73877       40.93256
H         86.43573       62.00412       39.18365
H         86.05637       63.72868       38.97613
N         86.34331       60.14942       43.02940
C         87.36715       59.13717       43.21694
C         86.74899       57.80166       43.59269
O         87.49752       56.86468       43.83822
C         88.32198       59.62599       44.31133
C         89.04975       60.93132       43.96155
C         90.03293       60.73686       42.84885
O         89.68404       60.63851       41.68361
O         91.32457       60.64145       43.18672
H         85.81819       60.42983       43.86938
H         87.94228       58.95005       42.28620
H         89.08794       58.84994       44.53495
H         87.72349       59.79278       45.23011
H         89.63350       61.21321       44.86374
H         88.36536       61.77917       43.74705
N         85.39779       57.61297       43.61486
C         84.81014       56.33041       43.92478
H         83.70367       56.39763       43.85447
H         85.16495       55.56865       43.19803
H         85.08860       56.02551       44.95486
H         84.75218       58.38133       43.38406
Ca        93.18448       60.44950       41.97887
O         91.39266       62.35122       39.44184
H         90.98695       61.78388       38.73913
H         91.79269       63.10915       38.94608
O         94.41937       61.72364       39.03196
H         94.68346       61.79073       39.98323
H         94.33670       62.66397       38.73414
O         91.23792       58.26792       40.02142
H         90.32889       58.13992       39.65059
H         91.71249       57.42439       39.81186

Ca 1.0



