%chk=apoCaM-CA-Ng.loop1.water3.frame484.chk
%nprocshared=20
%mem=10GB
%nosave
#b3lyp/svp scf=(tight,noincore,xqc) Test 
#IOP(5/87=12) Density=Current Pop=(MK,readradii) iop(6/33=2) iop(6/42=6)

apoCaM-CA-Ng.loop1.water3.frame484 

   0  1 
C         75.94264       55.28465       82.70488
C         75.92956       56.65916       82.09984
O         75.30974       56.86218       81.06569
H         75.50332       55.32421       83.72508
H         75.35345       54.57141       82.09140
H         76.98826       54.91829       82.78001
N         76.59432       57.66833       82.72259
C         76.60300       59.05153       82.25171
C         77.43676       59.26453       80.98041
O         77.56260       60.41307       80.59108
C         77.14102       59.98789       83.36728
C         76.25739       60.00733       84.59257
O         76.06778       58.89529       85.32802
O         75.71882       61.04758       84.93753
H         77.07327       57.44171       83.60799
H         75.55928       59.37880       82.04919
H         77.17748       61.02953       82.97669
H         78.17373       59.69450       83.65498
N         78.05110       58.25814       80.28677
C         78.95940       58.50647       79.16045
C         78.45398       57.89498       77.85784
O         77.95119       56.78183       77.92192
C         80.34069       57.91464       79.49366
C         80.95108       58.59096       80.73008
C         82.41962       58.20216       80.97424
C         83.40794       58.68026       79.88572
N         83.47011       60.14166       79.78518
H         77.93099       57.28114       80.58547
H         79.11428       59.58400       79.01034
H         80.99372       58.08242       78.62435
H         80.27918       56.81576       79.65477
H         80.35077       58.30435       81.62089
H         80.87658       59.68693       80.62492
H         82.48436       57.09641       81.06403
H         82.74108       58.64257       81.94252
H         83.15763       58.24404       78.89746
H         84.41945       58.30483       80.15224
H         83.75271       60.55505       80.70288
H         84.17859       60.40578       79.06315
H         82.55401       60.54112       79.49188
N         78.62099       58.45981       76.60905
C         79.25217       59.74127       76.25012
C         80.67102       59.85316       76.77662
O         80.92148       60.67847       77.64186
C         78.38877       60.95914       76.62060
C         77.09094       60.99341       75.87992
O         76.74451       59.99860       75.04241
O         76.31235       61.91195       76.07809
H         78.29525       57.89565       75.80813
H         79.32601       59.81420       75.14278
H         78.93635       61.88929       76.35606
H         78.17480       60.96388       77.69569
N         81.69025       59.09655       76.28574
C         81.53433       58.21940       75.13574
C         82.84014       57.58514       74.69389
O         83.82794       57.67813       75.40885
H         82.62128       59.23225       76.70688
H         81.19037       58.86015       74.29806
H         80.78303       57.42594       75.33421
N         82.97287       56.97062       73.48257
C         81.91442       56.85692       72.48387
C         82.19800       57.84501       71.36972
O         83.24562       57.75486       70.74390
C         81.76024       55.40767       71.96752
C         82.96750       54.85257       71.25045
O         82.88429       54.53735       70.07409
O         84.13083       54.66242       71.90100
H         83.91825       56.65354       73.22517
H         80.93183       57.11428       72.92794
H         80.89594       55.39288       71.26638
H         81.51483       54.73692       72.81849
N         81.31698       58.85382       71.10486
C         81.56363       59.89211       70.11586
C         81.64088       61.27840       70.73215
O         81.88363       62.21577       69.98595
H         80.43526       58.90262       71.63833
H         80.74951       59.87214       69.36026
H         82.52218       59.71455       69.58324
N         81.45007       61.49767       72.06887
C         81.54872       62.80938       72.69918
C         82.59714       62.74904       73.79420
O         82.48399       61.92253       74.68983
C         80.18453       63.23586       73.28316
C         79.13631       63.39560       72.17775
O         80.33167       64.46953       73.94020
H         81.21954       60.71003       72.68900
H         81.84133       63.58813       71.96008
H         79.84771       62.45447       74.00531
H         79.63903       64.50728       74.65028
H         78.16906       63.71386       72.62042
H         79.46061       64.17040       71.44908
H         78.98111       62.43839       71.63894
N         83.64675       63.61869       73.78750
C         84.70384       63.60664       74.80067
C         84.19891       63.91785       76.21584
O         84.99463       63.81414       77.13981
C         85.84703       64.61823       74.44206
C         85.34116       66.09129       74.45590
C         86.51073       64.25282       73.09935
C         86.45398       67.13014       74.31785
H         83.69982       64.29267       73.01174
H         85.13955       62.58217       74.81412
H         86.63088       64.51738       75.22601
H         84.85227       66.29831       75.42771
H         84.59019       66.26224       73.65661
H         87.39298       64.89503       72.90407
H         86.87089       63.20317       73.12495
H         85.80943       64.36658       72.24736
H         86.01482       68.14754       74.39961
H         87.19844       67.00376       75.13248
H         86.96018       67.05878       73.33516
N         82.93587       64.38071       76.45466
C         82.47817       64.85869       77.75623
C         81.22725       64.12686       78.22189
O         80.27766       63.99281       77.46328
C         82.25197       66.39102       77.71244
C         81.25316       66.86310       76.64608
O         83.48825       67.01860       77.48679
H         82.28464       64.48733       75.66920
H         83.26357       64.71185       78.53100
H         81.86937       66.68737       78.71870
H         83.43891       67.92146       77.89666
H         80.25513       66.40699       76.79649
H         81.13875       67.96502       76.71344
H         81.61810       66.62791       75.62465
N         81.14875       63.68676       79.51083
C         79.97764       63.02981       80.08900
C         78.72248       63.88297       79.96089
O         78.76089       65.05082       80.32194
C         80.21939       62.66995       81.58877
C         80.39498       63.87536       82.52993
O         81.35671       61.85422       81.68880
H         81.96394       63.84769       80.12123
H         79.81328       62.06645       79.56122
H         79.32357       62.10009       81.93325
H         81.25051       61.30627       82.51079
H         80.56503       63.51288       83.56596
H         81.26333       64.49813       82.23274
H         79.48436       64.50549       82.56197
N         77.55428       63.33747       79.50161
C         76.26741       64.02745       79.54456
C         75.17365       63.19101       78.87305
O         74.56036       63.67967       77.93490
C         75.90474       64.32881       81.02258
C         74.63012       65.16779       81.19459
C         74.36607       65.54169       82.66858
C         75.42800       66.49476       83.25971
N         75.10322       66.85815       84.63821
H         77.56880       62.37136       79.16690
H         76.36293       64.98981       78.99266
H         76.73301       64.89967       81.46517
H         75.81072       63.38092       81.59671
H         73.76580       64.57912       80.81874
H         74.70479       66.10123       80.59521
H         74.30276       64.61637       83.28188
H         73.38240       66.05683       82.71556
H         75.47580       67.41854       82.64087
H         76.43270       66.02479       83.26003
H         74.17287       67.33322       84.67899
H         75.09359       66.00288       85.24021
H         75.83398       67.51433       84.99871
N         74.87699       61.92741       79.30527
C         73.81032       61.09189       78.75052
C         72.84394       60.73658       79.85751
O         73.25054       60.11542       80.83022
C         74.39514       59.81386       78.10161
C         73.34417       58.77103       77.64552
C         72.24189       59.29649       76.74925
O         71.08605       59.24717       77.13769
O         72.48961       59.78517       75.51691
H         75.42375       61.53808       80.08521
H         73.26185       61.63500       77.95049
H         75.07563       59.30368       78.81970
H         75.00282       60.11659       77.23667
H         72.87325       58.34675       78.55871
H         73.86619       57.93526       77.13067
N         71.53201       61.08690       79.75579
C         70.53708       60.75402       80.75302
H         69.74507       60.13392       80.28311
H         70.96446       60.18645       81.60605
H         70.08229       61.68811       81.14176
H         71.21079       61.60645       78.92510
Ca        74.55894       59.83327       74.68406
O         76.47515       61.00989       71.68204
H         76.55838       61.71780       72.36908
H         76.42109       61.50176       70.82423
O         73.95573       62.51807       73.33850
H         73.11590       62.60156       73.85613
H         74.66362       62.80999       73.96626
O         73.85052       59.31486       70.61143
H         74.45144       59.29347       69.82460
H         72.95284       59.11661       70.24338

Ca 1.0



