%chk=apoCaM-CA-Ng.loop1.water3.frame1450.chk
%nprocshared=20
%mem=10GB
%nosave
#b3lyp/svp scf=(tight,noincore,xqc) Test 
#IOP(5/87=12) Density=Current Pop=(MK,readradii) iop(6/33=2) iop(6/42=6)

apoCaM-CA-Ng.loop1.water3.frame1450 

   0  1 
C         48.14279       80.72833      123.10167
C         49.23759       81.75033      123.06067
O         49.58730       82.17722      121.96919
H         47.24387       81.14220      122.59732
H         48.46604       79.81059      122.56664
H         47.87380       80.46315      124.14450
N         49.84835       82.17395      124.20782
C         50.88987       83.19662      124.21119
C         52.27385       82.58827      124.32203
O         53.06944       83.01156      125.15089
C         50.60031       84.29153      125.26780
C         50.63203       83.82491      126.70711
O         50.40740       84.71570      127.69072
O         50.87361       82.66407      127.00058
H         49.57288       81.73976      125.09991
H         50.89687       83.70441      123.23032
H         49.60173       84.73247      125.06242
H         51.35784       85.09858      125.15724
N         52.65194       81.61594      123.44697
C         54.01857       81.12216      123.36492
C         54.94434       82.26135      122.94963
O         55.88073       82.51204      123.69420
C         54.13181       79.87270      122.45888
C         53.37095       78.69327      123.09643
C         53.46120       77.41285      122.26167
C         52.73694       76.26050      122.97664
N         52.77357       75.03595      122.17941
H         51.95238       81.24594      122.78675
H         54.34150       80.77729      124.37465
H         55.20330       79.58460      122.38004
H         53.75446       80.06158      121.43500
H         52.29886       78.95662      123.22331
H         53.80501       78.49359      124.10181
H         54.52766       77.13560      122.11195
H         52.99209       77.59111      121.26979
H         51.67604       76.54159      123.16148
H         53.22326       76.07175      123.96056
H         52.28455       75.18909      121.26776
H         53.76341       74.74578      122.00770
H         52.28261       74.27446      122.70188
N         54.75343       83.07252      121.86202
C         53.68052       82.98356      120.87233
C         52.67403       84.11356      121.04891
O         52.84559       84.95374      121.92258
C         54.28352       82.92434      119.45204
C         55.21392       84.07024      119.16500
O         54.77285       85.34054      119.20671
O         56.38618       83.84706      118.91100
H         55.41210       83.86112      121.75962
H         53.08809       82.06714      121.00598
H         53.48138       82.90570      118.68541
H         54.85504       81.97461      119.35853
N         51.53593       84.13000      120.29762
C         50.43199       85.05456      120.51546
C         50.76446       86.49786      120.24272
O         51.87284       86.80645      119.84085
H         51.39790       83.39531      119.58722
H         50.07340       84.96225      121.55967
H         49.59332       84.77487      119.84205
N         49.78101       87.43295      120.41095
C         49.93507       88.86247      120.11732
C         48.55630       89.53899      119.95644
O         47.56617       88.98703      120.41024
C         50.75032       89.57647      121.22933
C         52.18633       89.13851      121.27045
O         52.63507       88.60918      122.27376
O         52.97845       89.32250      120.18913
H         48.85809       87.07396      120.69259
H         50.44595       88.93200      119.14327
H         50.25396       89.39680      122.20970
H         50.76885       90.66936      121.08381
N         48.37671       90.73361      119.30456
C         49.42185       91.49340      118.64212
C         50.00732       90.76454      117.45872
O         49.46191       89.76045      117.01955
H         47.42214       91.12583      119.26694
H         50.21698       91.74214      119.36405
H         49.02028       92.46112      118.27133
N         51.16670       91.21434      116.91567
C         51.85452       90.55152      115.81496
C         52.18178       89.10394      116.16453
O         52.67281       88.84326      117.25198
C         53.13682       91.33536      115.43916
C         53.81798       90.76250      114.19354
O         54.05546       91.33394      116.50321
H         51.58939       92.06076      117.32881
H         51.19048       90.57433      114.92238
H         52.84641       92.38157      115.17855
H         53.92026       92.17048      117.01896
H         53.11525       90.76669      113.33277
H         54.69602       91.38906      113.93313
H         54.16610       89.72298      114.36917
N         51.97502       88.12883      115.23230
C         52.28541       86.70687      115.36603
C         53.74722       86.49277      115.72301
O         54.12208       86.71643      116.86405
C         51.33761       85.96575      116.35602
C         49.83934       86.27337      116.10503
C         51.59213       84.44385      116.32982
C         49.32206       85.92170      114.70771
H         51.60733       88.42149      114.31422
H         52.11071       86.26025      114.36232
H         51.55330       86.31983      117.38369
H         49.66560       87.35473      116.26768
H         49.22919       85.72849      116.85887
H         51.41393       84.02377      115.31776
H         52.63909       84.21102      116.61489
H         50.92500       83.92703      117.05211
H         49.85993       86.49932      113.92855
H         49.42112       84.83745      114.50102
H         48.24640       86.18905      114.64240
N         54.62641       86.03283      114.79202
C         56.02214       85.73531      115.09283
C         56.99345       86.62306      114.33003
O         58.17824       86.37493      114.47197
C         56.31219       84.23436      114.83593
C         56.14434       83.81223      113.37387
O         55.46324       83.44678      115.62936
H         54.28931       85.87831      113.83100
H         56.24095       85.90972      116.17030
H         57.37718       84.02481      115.10340
H         55.93012       83.29780      116.49070
H         56.41375       82.74014      113.26930
H         55.09448       83.93400      113.03923
H         56.81138       84.40531      112.71397
N         56.59663       87.66116      113.52599
C         57.53307       88.52351      112.78985
C         58.41448       89.28796      113.78458
O         58.03118       90.36370      114.21876
C         56.74746       89.49240      111.85774
C         57.67102       90.28307      110.92519
O         55.84602       88.75706      111.06831
H         55.58842       87.84429      113.42365
H         58.15941       87.87493      112.13646
H         56.18057       90.20359      112.50158
H         55.06526       89.34698      110.89231
H         58.40528       90.88522      111.49790
H         58.21607       89.58863      110.25015
H         57.06452       90.97322      110.29939
N         59.54830       88.70731      114.27713
C         60.34685       89.17385      115.41148
C         59.51129       89.30980      116.68330
O         58.61520       90.14006      116.71747
C         61.08696       90.49592      115.17087
C         61.87708       90.54663      113.86068
C         62.85163       91.73459      113.90435
C         63.46297       92.09143      112.54322
N         64.14082       90.96436      111.90468
H         59.85426       87.81754      113.85712
H         61.13796       88.40492      115.57378
H         61.78606       90.61018      116.03116
H         60.38620       91.35858      115.17966
H         61.14927       90.65307      113.02661
H         62.46470       89.61418      113.71248
H         63.65744       91.49624      114.63567
H         62.32329       92.64468      114.26327
H         64.19017       92.91901      112.70315
H         62.65968       92.46489      111.87127
H         63.44741       90.22591      111.64657
H         64.59334       91.30413      111.02532
H         64.87294       90.56910      112.53710
N         59.76885       88.54844      117.78376
C         59.04469       88.70594      119.04865
C         58.04138       87.55169      119.32662
O         57.28849       87.91260      120.45744
C         60.02174       88.88830      120.22965
C         60.92153       90.11915      120.07924
C         61.79339       90.27746      121.29324
O         62.59117       89.40477      121.59815
O         61.69318       91.38264      122.05636
H         60.53500       87.86918      117.72174
H         58.40746       89.61663      118.99931
H         60.65063       87.97698      120.33380
H         59.43224       89.01370      121.16481
H         60.28651       91.02482      119.96756
H         61.56472       90.02170      119.17875
N         58.65330       86.24138      119.60803
C         59.38691       85.64901      118.48925
H         60.45271       85.94361      118.55182
H         59.39638       84.54301      118.58901
H         58.93665       85.91168      117.50663
H         57.85583       85.60255      119.82162
Ca        55.10610       88.51164      120.03956
O         55.29786       86.75932      122.67657
H         54.99121       87.69607      122.76523
H         54.93268       86.46090      121.80662
O         55.61116       91.41041      120.45343
H         56.42126       90.87473      120.64797
H         55.55702       91.42766      119.46479
O         55.70795       89.02624      116.86116
H         56.00382       89.69048      117.53204
H         56.42934       88.34975      116.84340

Ca 1.0



