%chk=apoCaM-CA-Ng.loop3.water5.frame1111.chk
%nprocshared=20
%mem=10GB
%nosave
#b3lyp/svp scf=(tight,noincore,xqc) Test 
#IOP(5/87=12) Density=Current Pop=(MK,readradii) iop(6/33=2) iop(6/42=6)

apoCaM-CA-Ng.loop3.water5.frame1111 

   0  1 
C         63.45569      103.41661       46.46274
C         63.76524      104.79509       46.96684
O         63.31082      105.76105       46.37445
H         62.79806      103.46012       45.56791
H         64.39838      102.89733       46.19188
H         62.93493      102.83970       47.25612
N         64.53997      104.95434       48.07512
C         64.86398      106.25360       48.66034
C         66.36045      106.54761       48.64029
O         66.74998      107.57967       49.16761
C         64.26462      106.35581       50.08111
C         64.79703      105.38758       51.10611
O         64.30393      105.42516       52.35803
O         65.66289      104.57447       50.83117
H         64.90390      104.10477       48.53148
H         64.38610      107.07128       48.07546
H         63.16728      106.20080       50.00195
H         64.43399      107.38552       50.46495
N         67.25037      105.73188       47.99667
C         68.67433      106.02402       47.83743
C         68.83997      107.35962       47.13399
O         69.51290      108.24689       47.64276
C         69.43513      105.98256       49.18135
C         69.21806      104.66688       49.93474
C         70.04630      104.64474       51.22698
C         69.80167      103.39050       52.08136
N         68.43970      103.34376       52.61974
H         66.90894      104.88185       47.52675
H         69.11114      105.23612       47.18291
H         69.10399      106.81828       49.83525
H         70.52048      106.11471       48.97243
H         69.50814      103.80429       49.29593
H         68.14111      104.59060       50.17212
H         69.82295      105.54351       51.84257
H         71.12263      104.67585       50.94782
H         70.51533      103.41650       52.93409
H         70.00905      102.47316       51.48733
H         68.23232      104.21908       53.15431
H         67.73968      103.21775       51.85642
H         68.35782      102.52866       53.26864
N         68.17761      107.58094       45.96712
C         68.15820      108.86580       45.28522
C         66.75350      109.43349       45.35376
O         66.15194      109.74929       44.33633
C         68.74545      108.73248       43.86437
C         68.17975      107.58695       43.07305
O         69.00393      106.60213       42.67147
O         66.99228      107.53253       42.79772
H         67.60101      106.82009       45.57787
H         68.79021      109.61329       45.81316
H         69.83680      108.54927       43.97060
H         68.61884      109.68524       43.30638
N         66.18953      109.63098       46.57842
C         64.90293      110.27764       46.75330
C         64.56949      110.44234       48.23053
O         65.43018      110.94333       48.94063
H         66.72523      109.35238       47.41220
H         64.14162      109.73768       46.17038
H         64.98278      111.30075       46.32664
N         63.35356      110.16457       48.79776
C         62.15937      109.67015       48.11508
C         61.52631      108.54452       48.92141
O         61.69166      108.53447       50.13469
C         61.13534      110.81332       47.94706
C         61.67773      111.96470       47.12883
N         62.63822      112.78543       47.61930
O         61.22417      112.17232       46.01360
H         63.24386      110.42161       49.79279
H         62.39138      109.29305       47.11065
H         60.79341      111.19917       48.93188
H         60.24850      110.40014       47.42202
H         63.00870      112.66544       48.57233
H         63.00080      113.56558       47.05211
N         60.76831      107.55331       48.37041
C         60.47356      107.41370       46.94392
C         59.70226      106.13801       46.64602
O         59.37666      105.40764       47.57148
H         60.40175      106.85348       49.03294
H         61.42189      107.36591       46.37760
H         59.88622      108.28487       46.58863
N         59.38561      105.79011       45.35892
C         58.67022      104.54928       45.05500
C         59.51390      103.61007       44.19802
O         60.50206      104.03277       43.61533
C         57.30521      104.86773       44.40669
C         56.38503      103.67042       44.41133
C         55.93628      103.08854       43.21511
C         55.96584      103.12550       45.63886
C         55.09469      101.96988       43.25050
C         55.12796      102.01147       45.67143
C         54.69109      101.42651       44.47642
O         53.88570      100.34567       44.49593
H         59.65985      106.41380       44.58494
H         58.48383      104.01211       46.00571
H         57.47504      105.26004       43.37935
H         56.79441      105.66586       44.98904
H         56.24193      103.49255       42.25834
H         56.28925      103.56346       46.57504
H         54.75767      101.52250       42.32434
H         54.82136      101.60498       46.62713
H         53.59195       99.94046       45.32486
N         59.21691      102.27764       44.17230
C         60.04078      101.27362       43.49429
C         59.92216      101.32301       41.97343
O         59.07437      102.02758       41.44319
C         59.69870       99.82842       43.99611
C         60.07739       99.66960       45.48949
C         58.22571       99.43915       43.72139
C         59.99499       98.22272       45.98186
H         58.43574      101.96566       44.76154
H         61.10497      101.47307       43.75332
H         60.34081       99.11707       43.43456
H         59.44087      100.31497       46.13161
H         61.13467       99.98975       45.61887
H         58.04139       98.37658       43.97466
H         57.51325      100.04975       44.31212
H         57.98091       99.55880       42.64609
H         60.64611       97.56988       45.36121
H         60.34697       98.16966       47.03337
H         58.95549       97.84006       45.95214
N         60.75071      100.53752       41.21888
C         60.65616      100.36222       39.77287
C         61.92715      100.85388       39.10141
O         63.00459      100.40143       39.46308
C         60.42926       98.87417       39.46853
O         59.23059       98.45413       40.06524
H         61.48205       99.99424       41.70408
H         59.78802      100.92231       39.36266
H         61.26967       98.26196       39.86740
H         60.37840       98.74139       38.36290
H         58.89705       97.68607       39.53277
N         61.86518      101.80331       38.11695
C         63.02669      102.44744       37.50207
C         63.93156      101.51925       36.69555
O         65.02289      101.94774       36.34610
C         63.81662      103.20846       38.57651
H         60.93720      102.14151       37.82138
H         62.66544      103.21980       36.78820
H         63.13744      103.91296       39.10291
H         64.26921      102.52026       39.31720
H         64.63044      103.80418       38.11149
N         63.55089      100.25938       36.33021
C         64.40645       99.32458       35.59967
C         65.64933       99.02883       36.41348
O         66.75756       99.12184       35.90084
C         64.74137       99.83580       34.18332
H         62.61582       99.91933       36.59645
H         63.84650       98.37007       35.48653
H         65.34381       99.07943       33.63459
H         63.81099      100.02433       33.60984
H         65.33316      100.77462       34.21379
N         65.52074       98.72357       37.73465
C         66.65672       98.51949       38.61952
C         66.55686       97.19143       39.36794
O         67.47728       96.86788       40.10501
C         66.72580       99.74248       39.55823
C         68.03557       99.84670       40.35158
C         68.07597      101.13581       41.11464
O         68.18291      101.13328       42.33049
O         67.99950      102.30527       40.45309
H         64.57622       98.72593       38.14848
H         67.59664       98.50245       38.02584
H         65.84696       99.75606       40.24092
H         66.66756      100.64838       38.91164
H         68.89603       99.83777       39.64774
H         68.13859       98.99888       41.05713
N         65.48547       96.35492       39.22944
C         65.39653       95.10029       39.94336
H         64.44252       94.58904       39.69199
H         66.24121       94.44009       39.65486
H         65.42161       95.28395       41.03860
H         64.69914       96.59262       38.61044
Ca        68.02745      104.23169       41.60443
O         65.04993      104.21805       41.80338
H         64.61040      104.74665       41.09111
H         65.27603      103.35618       41.37139
O         70.68716      103.69328       43.08567
H         70.62755      103.26613       43.97690
H         71.57389      104.13370       43.07839
O         70.54284      104.88078       39.93127
H         70.55923      105.87080       39.92957
H         70.02577      104.63944       39.12197
O         67.37241      104.08662       44.57229
H         66.64545      104.71365       44.81398
H         67.42448      103.45884       45.33580
O         67.27820      106.53229       39.78968
H         66.40781      106.10044       39.59904
H         67.72917      106.58433       38.91000

Ca 1.0



