%chk=apoCaM-CA-Ng.loop2.water3.frame842.chk
%nprocshared=20
%mem=10GB
%nosave
#b3lyp/svp scf=(tight,noincore,xqc) Test 
#IOP(5/87=12) Density=Current Pop=(MK,readradii) iop(6/33=2) iop(6/42=6)

apoCaM-CA-Ng.loop2.water3.frame842 

   -2  1 
C         54.85727      -22.93671       88.77525
C         53.67973      -23.48404       88.01638
O         52.64690      -23.72808       88.62326
H         55.71974      -22.74008       88.10327
H         54.57499      -21.98503       89.27125
H         55.17857      -23.66711       89.54807
N         53.77390      -23.73118       86.67907
C         52.68742      -24.31582       85.89501
C         51.58885      -23.30228       85.54504
O         50.62167      -23.69774       84.90914
C         53.27935      -24.91762       84.60024
C         52.27303      -25.71566       83.81698
O         51.98992      -25.39574       82.67378
O         51.68036      -26.78921       84.37478
H         54.68405      -23.56785       86.22025
H         52.25769      -25.16144       86.47921
H         54.10891      -25.60804       84.86709
H         53.69667      -24.09887       83.97278
N         51.66140      -21.98834       85.91036
C         50.67556      -20.98096       85.52092
C         51.41138      -19.77152       84.94036
O         52.27897      -19.26060       85.63498
C         49.86226      -20.58610       86.75395
H         52.44510      -21.67102       86.49750
H         49.95288      -21.40165       84.79445
H         49.33508      -21.48481       87.14385
H         50.51580      -20.18160       87.55368
H         49.09677      -19.82697       86.49197
N         51.19499      -19.24531       83.69363
C         50.14848      -19.66685       82.76325
C         50.35315      -19.12401       81.34610
O         51.25844      -18.34164       81.09519
C         48.75484      -19.21520       83.28549
C         48.60789      -17.72011       83.47199
O         47.43030      -17.22288       83.89342
O         49.53264      -16.95310       83.25369
H         51.82488      -18.48030       83.40660
H         50.19507      -20.77152       82.65657
H         48.53593      -19.69249       84.25615
H         47.96547      -19.54958       82.58128
N         49.52179      -19.55081       80.35482
C         49.58459      -19.12326       78.96843
C         48.21102      -18.66355       78.53659
O         47.56705      -19.39979       77.80317
H         48.80523      -20.25586       80.58599
H         49.85308      -20.02050       78.36887
H         50.35952      -18.35377       78.77364
N         47.63604      -17.50391       78.96407
C         48.31851      -16.45651       79.71352
C         49.29806      -15.76568       78.77553
O         48.88022      -15.34912       77.70292
C         47.27031      -15.43988       80.22499
C         47.78809      -14.41327       81.20203
N         46.94553      -13.46135       81.66276
O         48.94243      -14.44399       81.60033
H         46.65352      -17.33834       78.69093
H         48.80946      -16.89240       80.60777
H         46.47051      -15.99362       80.76242
H         46.81028      -14.91852       79.35744
H         45.96731      -13.42706       81.34391
H         47.26150      -12.75290       82.33453
N         50.60382      -15.58803       79.11176
C         51.57604      -14.96824       78.22160
C         51.96211      -13.57325       78.65976
O         52.86439      -13.01322       78.05349
H         50.92338      -15.87878       80.04623
H         51.19155      -14.88116       77.18207
H         52.47348      -15.62251       78.18470
N         51.29626      -12.92337       79.65894
C         51.61221      -11.56848       80.09551
C         51.96298      -11.56384       81.60269
O         52.64563      -12.73942       81.91076
C         50.40732      -10.63587       79.80253
C         50.21093      -10.45178       78.29780
O         49.22056      -11.16493       80.33560
H         50.51439      -13.39053       80.12845
H         52.50515      -11.18753       79.55096
H         50.58291       -9.61972       80.21961
H         49.30665      -11.13289       81.31932
H         49.34739       -9.77744       78.11379
H         51.11684       -9.99212       77.84881
H         50.01071      -11.42432       77.80032
N         52.81492      -10.40767       81.92314
C         53.10260      -10.16844       83.35558
C         51.95091       -9.40293       84.00477
O         51.60297       -8.33518       83.51865
C         54.44603       -9.38294       83.43585
C         54.82985       -8.89534       84.85845
C         55.58742      -10.21923       82.81856
C         55.06737       -9.99798       85.88957
H         52.48432       -9.52896       81.46242
H         53.25020      -11.13498       83.88510
H         54.33727       -8.46254       82.81938
H         54.03389       -8.22235       85.24208
H         55.76005       -8.28978       84.78294
H         55.73034      -11.17263       83.36993
H         55.36606      -10.47513       81.76100
H         56.53986       -9.64909       82.83300
H         55.90542      -10.65931       85.58956
H         55.33508       -9.53367       86.86257
H         54.14979      -10.59777       86.02971
N         51.30620       -9.90335       85.10186
C         50.11149       -9.29214       85.69004
C         50.28658       -8.88396       87.15019
O         49.32088       -8.40661       87.72940
C         48.95275      -10.29177       85.56604
C         48.75249      -10.67857       84.13513
O         48.42097       -9.84400       83.30749
O         48.98554      -11.94671       83.75751
H         51.63301      -10.79475       85.50441
H         49.82622       -8.36969       85.13556
H         48.00485       -9.86006       85.95482
H         49.19573      -11.20149       86.15745
N         51.48592       -8.97696       87.79486
C         51.70919       -8.45186       89.13960
C         52.67971       -9.33736       89.92193
O         53.80630       -9.48862       89.47049
C         52.32824       -7.03983       89.00165
C         52.94658       -6.55875       90.29715
C         54.34378       -6.41655       90.36734
C         52.17289       -6.31246       91.44370
C         54.95982       -6.05130       91.56285
C         52.79618       -5.94199       92.64223
C         54.18815       -5.81637       92.70151
H         52.31073       -9.29172       87.26632
H         50.75467       -8.33878       89.69468
H         51.57345       -6.31706       88.62082
H         53.13050       -7.10418       88.23411
H         54.96164       -6.61455       89.49988
H         51.09612       -6.42067       91.41506
H         56.03756       -5.96258       91.60479
H         52.20348       -5.76191       93.52941
H         54.67195       -5.54122       93.62926
N         52.37141       -9.86393       91.15274
C         53.36695      -10.45365       92.03968
C         53.83610      -11.83120       91.61433
O         54.65030      -12.40303       92.32733
C         52.67420      -10.44063       93.40407
C         51.23466      -10.69261       93.02479
C         51.07679       -9.78886       91.80115
H         54.26611       -9.80188       92.12138
H         53.11470      -11.11522       94.16913
H         52.71698       -9.39904       93.80154
H         51.16427      -11.75550       92.69927
H         50.49095      -10.51406       93.82999
H         50.24980      -10.17813       91.16880
H         50.88146       -8.73685       92.09571
N         53.43598      -12.40393       90.44424
C         53.98336      -13.66527       89.95441
C         55.50387      -13.62408       89.76203
O         56.08063      -14.67726       89.52686
C         53.32529      -14.05044       88.60660
C         53.64054      -13.00557       87.51936
C         53.12284      -13.39000       86.18032
O         51.80569      -13.51171       85.94414
O         53.90783      -13.52415       85.25435
H         52.72381      -11.92700       89.87894
H         53.75123      -14.44615       90.71168
H         52.22401      -14.13950       88.73474
H         53.71391      -15.04185       88.28472
H         54.74043      -12.88262       87.42604
H         53.20932      -12.01644       87.77181
N         56.21565      -12.45844       89.79528
C         57.64678      -12.42589       89.58954
H         57.89599      -12.83353       88.58680
H         58.01301      -11.37820       89.64622
H         58.15614      -13.02362       90.37433
H         55.74468      -11.55603       89.94319
Ca        51.53212      -13.46772       83.73595
O         48.34380      -14.28872       85.67316
H         48.54973      -15.23902       85.48910
H         47.72598      -14.31482       86.44638
O         51.15919      -16.16258       86.67013
H         50.37758      -16.74258       86.49151
H         51.94545      -16.74258       86.51281
O         52.77737      -15.74274       81.97327
H         51.93114      -16.04920       82.38486
H         53.39806      -15.63845       82.73695

Ca 1.0



