%chk=apoCaM-CA-Ng.loop4.water4.frame156.chk
%nprocshared=20
%mem=10GB
%nosave
#b3lyp/svp scf=(tight,noincore,xqc) Test 
#IOP(5/87=12) Density=Current Pop=(MK,readradii) iop(6/33=2) iop(6/42=6)

apoCaM-CA-Ng.loop4.water4.frame156 

   -3  1 
C         45.98972       51.63366       47.00888
C         45.10674       50.60297       47.64116
O         45.50352       49.45677       47.68973
H         46.93605       51.16858       46.65316
H         45.47295       52.10819       46.15207
H         46.24868       52.40374       47.76653
N         43.91053       50.95570       48.18940
C         43.04893       50.06686       48.96874
C         43.75716       49.59337       50.22508
O         43.83867       48.40883       50.48921
C         42.27359       49.00772       48.13182
C         42.92714       48.06093       47.13810
O         43.78603       47.07371       47.47395
O         42.54503       48.10359       45.97890
H         43.63073       51.94679       48.12963
H         42.22565       50.69525       49.38133
H         41.54731       49.60329       47.53257
H         41.66449       48.39832       48.83431
N         44.23343       50.54460       51.07929
C         44.91839       50.36021       52.35717
C         44.03582       49.67614       53.39772
O         43.55015       50.37573       54.27656
C         46.33418       49.73296       52.21215
C         47.11296       49.72686       53.55776
C         47.14966       50.45745       51.12432
C         47.37387       51.11102       54.17220
H         44.08872       51.52830       50.79995
H         45.07772       51.39793       52.72332
H         46.23225       48.67663       51.88353
H         48.09676       49.24046       53.38995
H         46.55924       49.11600       54.30239
H         46.65800       50.35303       50.13603
H         47.25387       51.53956       51.34348
H         48.16140       50.01277       51.04055
H         46.43272       51.63806       54.42241
H         47.93399       50.99413       55.12171
H         47.97994       51.74431       53.49253
N         43.80449       48.32793       53.39996
C         42.93299       47.68672       54.37950
C         43.69057       47.29097       55.64980
O         43.34799       47.85304       56.68134
C         42.09735       46.55457       53.74269
C         41.13408       47.08983       52.71638
O         41.18174       46.70302       51.56019
O         40.19043       47.98039       53.07815
H         44.27240       47.72977       52.70763
H         42.17608       48.43097       54.72104
H         41.49743       46.05299       54.53213
H         42.74408       45.79966       53.26052
N         44.70311       46.37544       55.73828
C         45.25000       45.60284       54.63334
C         46.34686       44.63011       55.06884
O         46.66041       44.58264       56.25000
H         45.09649       46.23612       56.68116
H         45.66196       46.31193       53.89275
H         44.44338       44.99936       54.20800
N         47.02055       43.80900       54.20314
C         46.85536       43.70712       52.75199
C         47.04002       45.07244       52.10908
O         46.12204       45.55281       51.46057
C         45.53153       43.00585       52.37207
C         45.40656       41.67288       53.05886
O         44.37217       41.43790       53.88866
O         46.24204       40.80159       52.87517
H         47.76162       43.21598       54.61077
H         47.65366       43.03902       52.35551
H         45.50580       42.84491       51.27222
H         44.65438       43.62230       52.62774
N         48.17434       45.81135       52.28686
C         49.35738       45.35311       52.98868
C         49.55562       46.11467       54.27036
O         48.87685       47.09976       54.52274
H         48.19445       46.77120       51.92825
H         50.25251       45.45340       52.33774
H         49.28920       44.28237       53.24122
N         50.45016       45.64323       55.17522
C         50.65955       46.26124       56.48037
C         51.45386       47.56021       56.41058
O         51.61301       48.18945       57.44828
C         51.31262       45.25909       57.45729
C         52.69935       44.73723       57.03818
C         53.18447       43.74438       58.06053
N         53.30803       42.43286       57.74675
O         53.44527       44.12344       59.19251
H         50.91398       44.75475       54.94474
H         49.65944       46.48899       56.91445
H         50.62794       44.38568       57.54932
H         51.38472       45.73495       58.46001
H         53.43311       45.56560       56.93912
H         52.63682       44.22775       56.05742
H         53.06534       42.08643       56.80674
H         53.62075       41.75360       58.45574
N         51.98990       48.02247       55.24389
C         52.78733       49.24341       55.14285
C         54.21226       48.95269       54.68562
O         54.97829       49.89751       54.56433
C         52.09768       50.27991       54.21495
C         50.79792       50.78310       54.84835
C         51.82120       49.73662       52.80482
H         51.85068       47.47977       54.38082
H         52.89804       49.72520       56.14025
H         52.76868       51.16250       54.11889
H         50.34248       51.56613       54.20653
H         50.07771       49.94923       54.98039
H         51.00630       51.23684       55.84124
H         51.39158       50.54131       52.17160
H         52.75977       49.38117       52.33058
H         51.08882       48.90267       52.82837
N         54.65302       47.68045       54.45305
C         56.03480       47.34841       54.12087
C         56.15367       46.72271       52.73501
O         57.22107       46.84997       52.14911
C         56.57329       46.33589       55.16425
C         56.68573       46.80402       56.60546
N         56.53395       48.09593       56.98670
O         56.95137       45.96855       57.45665
H         54.00293       46.89286       54.56411
H         56.68852       48.24820       54.12441
H         57.58321       45.97986       54.86395
H         55.89048       45.45752       55.14985
H         56.36021       48.84929       56.31512
H         56.62873       48.35749       57.97958
N         55.17582       45.92754       52.20447
C         55.36595       45.11980       51.00105
C         54.28134       45.35229       49.96370
O         53.11388       45.25887       50.31307
C         55.33691       43.63398       51.40937
C         56.42713       43.30580       52.40132
C         57.77889       43.45934       52.04825
C         56.10298       42.84318       53.68783
C         58.78737       43.15916       52.96642
C         57.11438       42.54210       54.60479
C         58.45816       42.69831       54.24871
O         59.42220       42.40177       55.14300
H         54.29440       45.79292       52.71932
H         56.35301       45.31739       50.53186
H         55.47305       42.99323       50.51129
H         54.33943       43.39959       51.84533
H         58.05449       43.81106       51.06227
H         55.06890       42.71754       53.98430
H         59.82355       43.28425       52.67857
H         56.85247       42.18660       55.59326
H         60.36275       42.49226       54.93302
N         54.61886       45.51454       48.64187
C         53.69889       45.54017       47.49568
C         53.05794       46.89227       47.23639
O         53.09779       47.35664       46.10479
C         52.59481       44.45419       47.54283
C         53.14388       43.03192       47.70164
C         52.03189       42.02707       47.58405
O         52.05964       41.18292       46.70256
O         50.99541       42.05575       48.44423
H         55.62201       45.47734       48.40479
H         54.30137       45.31041       46.58632
H         52.03789       44.50532       46.57954
H         51.85925       44.66233       48.34846
H         53.62882       42.91657       48.69316
H         53.90051       42.83683       46.91111
N         52.37509       47.53750       48.21443
C         51.52780       48.70659       47.99590
C         52.29202       49.94930       47.54694
O         51.64031       50.94846       47.27181
C         50.75287       49.03188       49.29807
C         49.94394       47.85325       49.88874
C         48.72596       47.46918       49.10484
O         48.79668       47.14130       47.93186
O         47.55429       47.39397       49.75914
H         52.41040       47.13082       49.14792
H         50.79502       48.45413       47.20004
H         50.07136       49.89827       49.14753
H         51.51141       49.32082       50.05399
H         49.61411       48.16029       50.90047
H         50.55473       46.94608       50.04055
N         53.65217       49.98801       47.44884
C         54.35074       51.18062       47.01901
H         55.44497       50.99192       46.99342
H         54.01749       51.47183       45.99974
H         54.14925       52.01292       47.72645
H         54.22310       49.16610       47.68582
Ca        45.52402       47.17823       48.87574
O         44.12353       44.11788       47.37340
H         44.60315       43.30319       47.66606
H         43.16499       43.88584       47.46191
O         46.19892       46.68142       45.83278
H         46.76462       47.39070       46.22855
H         46.84241       46.01786       45.47920
O         47.22214       44.28649       48.69789
H         47.88721       44.16299       49.42071
H         47.00146       43.36664       48.40639
O         43.47629       44.99388       50.14013
H         43.46563       45.78504       50.73346
H         42.95795       44.30840       50.63091

Ca 1.0



