%chk=apoCaM-CA-Ng.loop2.water6.frame202.chk
%nprocshared=20
%mem=10GB
%nosave
#b3lyp/svp scf=(tight,noincore,xqc) Test 
#IOP(5/87=12) Density=Current Pop=(MK,readradii) iop(6/33=2) iop(6/42=6)

apoCaM-CA-Ng.loop2.water6.frame202 

   -2  1 
C          8.28112       21.24252       50.34416
C          8.17419       20.90143       51.80155
O          8.71541       19.88066       52.20232
H          9.35184       21.32646       50.06288
H          7.80920       20.44023       49.73809
H          7.77716       22.20417       50.11322
N          7.46294       21.69683       52.65260
C          7.30966       21.41079       54.07720
C          5.87260       20.95759       54.32715
O          5.07478       20.99226       53.39936
C          7.68931       22.68623       54.87098
C          7.99392       22.51513       56.33902
O          8.15709       21.30040       56.89459
O          8.20275       23.50667       57.01916
H          6.97391       22.52097       52.26875
H          7.99098       20.57811       54.35774
H          6.87186       23.42891       54.73682
H          8.61374       23.12431       54.43550
N          5.48384       20.44464       55.52766
C          4.15934       19.89051       55.76940
C          4.22208       18.37586       55.90730
O          3.17468       17.76565       56.06910
C          3.54878       20.54736       57.00591
H          6.16380       20.36112       56.28862
H          3.48412       20.09477       54.90944
H          3.48603       21.64577       56.85125
H          2.52283       20.15970       57.18162
H          4.17262       20.34354       57.90201
N          5.40110       17.69493       55.77510
C          5.49670       16.24472       55.72067
C          5.92428       15.80860       54.32351
O          6.05607       14.61015       54.11201
C          6.49362       15.73159       56.77918
C          6.06374       16.06868       58.18085
O          5.96349       17.23227       58.53614
O          5.80762       15.08196       59.06107
H          6.28349       18.20511       55.63047
H          4.50958       15.76951       55.91502
H          7.50330       16.15810       56.59353
H          6.56623       14.62445       56.69596
N          6.10872       16.70910       53.30562
C          6.43658       16.32197       51.94594
C          5.29378       16.65168       51.01634
O          4.29392       17.21367       51.44639
H          5.97018       17.71745       53.46047
H          6.61105       15.22708       51.87707
H          7.36560       16.83608       51.61877
N          5.34745       16.23545       49.72353
C          4.20430       16.32388       48.82135
C          4.43137       15.35511       47.67660
O          5.42031       15.48779       46.96921
C          3.94782       17.77020       48.35100
C          2.59776       17.87787       47.68218
N          2.47794       18.30746       46.40837
O          1.59267       17.58378       48.31258
H          6.18759       15.71145       49.42839
H          3.31445       15.97747       49.39347
H          4.77303       18.10779       47.68452
H          3.92397       18.45459       49.22452
H          3.30704       18.57103       45.86872
H          1.55046       18.38301       45.96486
N          3.61093       14.27798       47.52465
C          3.94630       13.14426       46.68336
C          4.02937       13.45154       45.20938
O          3.01453       13.76424       44.60499
H          2.77904       14.18979       48.12812
H          3.18719       12.34417       46.82181
H          4.91489       12.73553       47.04258
N          5.22544       13.32927       44.56323
C          5.38585       13.42931       43.11250
C          6.06166       14.72519       42.69078
O          6.19769       14.94619       41.49193
C          6.13981       12.18068       42.57547
C          7.60384       12.07298       43.04886
O          5.43419       11.00554       42.89120
H          6.06382       13.13914       45.12983
H          4.38423       13.44836       42.63058
H          6.17372       12.25470       41.46692
H          5.52831       10.84397       43.86693
H          7.67880       11.96497       44.15024
H          8.08023       11.18132       42.58986
H          8.18113       12.96757       42.73864
N          6.45974       15.65197       43.60191
C          6.98338       16.97113       43.26637
C          6.00676       18.02264       43.77209
O          4.98818       17.64786       44.34471
C          8.43090       17.14542       43.82848
C          8.50135       16.94633       45.36850
C          9.38106       16.18737       43.08603
C          9.88211       17.23075       45.96391
H          6.32992       15.44929       44.60198
H          7.03277       17.11326       42.16318
H          8.76913       18.17716       43.59400
H          8.22777       15.90546       45.64171
H          7.78164       17.63868       45.85528
H          9.12088       15.12968       43.29565
H          9.31620       16.36058       41.99028
H         10.43749       16.36026       43.37173
H         10.64451       16.52290       45.57999
H         10.19441       18.27158       45.73780
H          9.83965       17.10236       47.06628
N          6.23267       19.35507       43.59895
C          5.32579       20.38663       44.09256
C          4.88820       21.35112       42.98081
O          4.25831       22.35107       43.28377
C          6.01616       21.08769       45.28550
C          5.09758       21.89989       46.16877
O          3.90257       21.99768       45.93525
O          5.59906       22.47930       47.27584
H          7.10857       19.65997       43.14322
H          4.40551       19.92659       44.50145
H          6.86417       21.70785       44.92512
H          6.42445       20.29568       45.95254
N          5.13707       21.08899       41.65847
C          4.72019       21.99089       40.58422
C          5.54288       23.27317       40.63981
O          6.75516       23.16653       40.54281
C          4.95506       21.33299       39.20296
C          4.57307       22.27563       38.08208
C          3.22961       22.62412       37.85941
C          5.57148       22.84222       37.27082
C          2.89472       23.52990       36.84715
C          5.23327       23.75221       36.26603
C          3.89630       24.09647       36.05419
H          5.60137       20.20889       41.39824
H          3.63172       22.17771       40.68525
H          4.37999       20.38646       39.10783
H          6.03391       21.07273       39.12543
H          2.44367       22.20026       38.47207
H          6.61413       22.59758       37.43038
H          1.85940       23.79835       36.68122
H          6.00987       24.19535       35.65630
H          3.63756       24.80388       35.27702
N          4.98442       24.52142       40.72971
C          5.76058       25.75398       40.74557
C          6.80062       25.78572       41.84721
O          7.95621       26.07931       41.57303
C          4.70522       26.84479       40.98263
C          3.50212       26.26179       40.28332
C          3.56362       24.80337       40.73187
H          6.23301       25.88815       39.74559
H          4.43287       26.89829       42.06069
H          5.01402       27.85921       40.65045
H          2.53670       26.77102       40.48714
H          3.70301       26.30183       39.18689
H          3.17044       24.65670       41.76158
H          2.98362       24.21028       39.99942
N          6.44318       25.49575       43.13037
C          7.35392       25.59306       44.26902
C          8.51889       24.60714       44.20754
O          9.41152       24.72803       45.03507
C          6.57842       25.37465       45.58588
C          5.49578       26.44409       45.81683
C          4.72941       26.16910       47.07558
O          4.07574       25.14451       47.18346
O          4.73871       27.06259       48.08222
H          5.46178       25.22922       43.30013
H          7.78054       26.62087       44.27797
H          7.28081       25.40836       46.44783
H          6.11369       24.36819       45.54943
H          4.76609       26.47308       44.98200
H          5.98240       27.44035       45.88718
N          8.58525       23.61118       43.27927
C          9.69315       22.68371       43.16865
H         10.48995       22.87996       43.91580
H          9.32189       21.64699       43.30828
H         10.13923       22.77012       42.15495
H          7.81704       23.48298       42.61756
Ca         2.67215       23.02169       48.66354
O          1.03139       20.52156       48.75362
H          1.26926       20.63246       47.79872
H          0.09037       20.82285       48.81130
O          1.52350       22.55852       51.50354
H          1.35097       23.47151       51.84550
H          0.66310       22.27708       51.10248
O          0.72788       25.42053       49.33806
H          0.37957       25.42883       48.41135
H          0.13834       24.78653       49.81852
O          4.03713       24.88381       50.77391
H          3.63408       25.53128       50.14270
H          5.01379       24.99917       50.65931
O          4.55527       21.25420       50.39853
H          4.42348       22.07830       50.93147
H          3.88681       20.61822       50.75792
O          0.37243       23.28405       46.58754
H         -0.23595       22.50868       46.49345
H          0.69452       23.46214       45.66844

Ca 1.0



