%chk=apoCaM-CA-Ng.loop1.water3.frame1303.chk
%nprocshared=20
%mem=10GB
%nosave
#b3lyp/svp scf=(tight,noincore,xqc) Test 
#IOP(5/87=12) Density=Current Pop=(MK,readradii) iop(6/33=2) iop(6/42=6)

apoCaM-CA-Ng.loop1.water3.frame1303 

   0  1 
C         38.58810       31.06033       64.24712
C         38.56297       30.80568       65.72495
O         38.71944       31.75448       66.48094
H         37.81396       31.81452       63.99297
H         39.58488       31.45060       63.95144
H         38.38238       30.13427       63.67128
N         38.40081       29.54033       66.21290
C         38.36395       29.23913       67.64165
C         39.66461       28.59916       68.08489
O         39.67360       27.53631       68.69038
C         37.09063       28.43761       68.00720
C         36.95376       27.07827       67.35813
O         35.85995       26.33736       67.61684
O         37.81070       26.63200       66.61149
H         38.33756       28.76391       65.53959
H         38.31848       30.18410       68.21515
H         36.20570       29.04498       67.71982
H         37.06269       28.29508       69.10938
N         40.82600       29.25455       67.82099
C         42.13907       28.80423       68.25517
C         42.27549       28.82211       69.76928
O         42.64734       27.78494       70.30139
C         43.25993       29.61502       67.56300
C         43.26178       29.44482       66.02246
C         43.52986       27.98904       65.57614
C         43.50531       27.78483       64.05469
N         44.56546       28.52089       63.36878
H         40.76900       30.12728       67.27570
H         42.27853       27.75076       67.95162
H         44.24836       29.28074       67.94757
H         43.15517       30.69376       67.80539
H         44.06228       30.09975       65.62110
H         42.29499       29.78953       65.59776
H         42.73799       27.31920       65.96170
H         44.50723       27.64929       65.98297
H         42.51243       28.08147       63.64949
H         43.64202       26.69729       63.85775
H         45.49820       28.25694       63.76116
H         44.54301       28.26999       62.35404
H         44.41420       29.55033       63.45489
N         41.97954       29.88084       70.57917
C         41.41267       31.17065       70.18592
C         39.94948       31.22847       70.62107
O         39.44932       30.26937       71.19081
C         42.29797       32.33976       70.68249
C         42.84201       32.13345       72.05995
O         42.00802       31.98097       73.09701
O         44.04998       32.06731       72.23381
H         42.08438       29.71631       71.59340
H         41.36337       31.28519       69.09285
H         41.74656       33.30314       70.63401
H         43.17362       32.42426       70.00305
N         39.16136       32.27213       70.23520
C         37.70746       32.25082       70.33849
C         37.13998       32.32629       71.73141
O         37.87745       32.46233       72.69557
H         39.58842       33.05309       69.71583
H         37.32514       31.32739       69.85858
H         37.29946       33.11909       69.77813
N         35.78001       32.29935       71.87071
C         35.06085       32.47093       73.13429
C         33.60535       32.89861       72.89305
O         33.06230       32.59242       71.83962
C         35.06885       31.18619       73.99498
C         36.42231       30.86098       74.54025
O         36.90449       29.75370       74.37135
O         37.08924       31.79169       75.25441
H         35.23517       32.24497       70.99638
H         35.55260       33.29657       73.67193
H         34.64709       30.33069       73.42044
H         34.41890       31.32074       74.87960
N         32.87012       33.59281       73.81807
C         33.36718       34.05197       75.10854
C         34.41845       35.12765       74.98222
O         34.65250       35.63316       73.89240
H         31.88398       33.80196       73.59702
H         33.76739       33.19615       75.67969
H         32.53283       34.47897       75.70500
N         35.11648       35.51148       76.08948
C         36.16397       36.52949       76.05435
C         37.26524       36.15202       75.06934
O         37.37968       34.99364       74.69315
C         36.70471       36.77791       77.48893
C         37.76111       37.88254       77.58882
O         37.23726       35.58486       78.00334
H         34.88763       35.05552       76.98634
H         35.68929       37.46618       75.68538
H         35.82640       37.09870       78.09961
H         37.02144       35.55851       78.97220
H         38.03529       38.03758       78.65390
H         38.68719       37.60188       77.04505
H         37.36220       38.83714       77.18630
N         38.04923       37.13353       74.54150
C         39.04921       36.96055       73.49527
C         40.20085       36.09612       73.97755
O         40.04503       34.89174       74.11713
C         38.41217       36.46212       72.15800
C         37.26923       37.43009       71.74368
C         39.48119       36.34896       71.05256
C         36.52062       37.02252       70.47511
H         37.89299       38.10155       74.86115
H         39.45976       37.97489       73.28852
H         37.97923       35.44963       72.30770
H         37.67348       38.45683       71.60608
H         36.51339       37.46526       72.55723
H         40.28333       35.64203       71.35056
H         39.04592       35.94409       70.11658
H         39.93584       37.34038       70.84321
H         36.09482       36.00319       70.58688
H         35.68924       37.73851       70.30006
H         37.18186       37.05902       69.58642
N         41.40420       36.67898       74.24376
C         42.59637       35.94434       74.64644
C         43.04258       36.29672       76.06176
O         44.07383       35.78077       76.47158
C         43.73234       36.18870       73.61471
C         44.20710       37.64653       73.54621
O         43.30376       35.80335       72.33474
H         41.48161       37.70175       74.15444
H         42.39599       34.85383       74.64435
H         44.62323       35.58191       73.90556
H         43.38271       34.81658       72.29101
H         45.04098       37.73008       72.81724
H         43.39718       38.32314       73.20587
H         44.57660       37.98905       74.53522
N         42.34535       37.15248       76.87123
C         42.81131       37.51740       78.20941
C         42.85198       36.29477       79.12309
O         41.80817       35.78592       79.50699
C         41.93136       38.64305       78.80613
C         42.41135       39.08544       80.19349
O         41.96442       39.74777       77.93795
H         41.47930       37.58686       76.51913
H         43.84005       37.92817       78.09487
H         40.88607       38.25962       78.88846
H         41.13984       40.27473       78.10518
H         43.45562       39.45965       80.14172
H         41.75742       39.89986       80.57142
H         42.36136       38.24490       80.91690
N         44.05636       35.75271       79.46262
C         44.26264       34.55035       80.26966
C         43.39019       33.40043       79.78700
O         42.66866       32.78121       80.55609
C         44.20521       34.85008       81.78215
C         45.13725       36.03735       82.11271
C         45.55055       36.15349       83.58380
C         44.38953       36.26137       84.57481
N         44.90600       36.45257       85.93176
H         44.90439       36.17306       79.05224
H         45.31362       34.22905       80.08611
H         44.56126       33.93610       82.30681
H         43.17283       35.07952       82.12511
H         44.65429       36.97893       81.76851
H         46.09277       35.92302       81.55461
H         46.19136       37.05863       83.67485
H         46.16683       35.26778       83.85226
H         43.78786       35.32664       84.54019
H         43.73547       37.11885       84.30531
H         45.55139       35.67007       86.18976
H         45.42259       37.36075       85.99133
H         44.11001       36.47145       86.60826
N         43.40310       33.11840       78.45996
C         42.59517       32.11033       77.78390
C         42.69410       32.37592       76.29163
O         41.65114       32.60737       75.70015
C         43.01390       30.65951       78.13015
C         42.17380       29.55115       77.45208
C         40.86814       29.29734       78.15859
O         40.75719       28.28762       78.83529
O         39.81922       30.13636       78.10613
H         43.99096       33.73469       77.88271
H         41.53366       32.24807       78.09032
H         42.99645       30.49578       79.22899
H         44.05373       30.48901       77.81038
H         42.76891       28.61835       77.57250
H         42.04656       29.70378       76.35813
N         43.87084       32.42990       75.58821
C         45.22057       32.23331       76.08833
H         45.81625       33.15013       75.89702
H         45.29015       32.03526       77.16826
H         45.69019       31.38645       75.54567
H         43.81879       32.66664       74.59278
Ca        38.97862       31.32958       76.39769
O         39.92691       34.73959       77.07918
H         40.90072       34.77688       77.24497
H         39.56253       34.28375       77.87767
O         37.39240       32.64701       78.33371
H         37.97045       32.01223       78.82671
H         36.61684       32.79154       78.92938
O         40.07509       30.11024       73.96811
H         39.82221       31.05200       73.79737
H         39.29334       29.59132       73.65795

Ca 1.0



