%chk=apoCaM-CA-Ng.loop1.water3.frame1041.chk
%nprocshared=20
%mem=10GB
%nosave
#b3lyp/svp scf=(tight,noincore,xqc) Test 
#IOP(5/87=12) Density=Current Pop=(MK,readradii) iop(6/33=2) iop(6/42=6)

apoCaM-CA-Ng.loop1.water3.frame1041 

   0  1 
C         22.30599       44.11547       38.32967
C         22.52587       43.25543       39.53716
O         22.35323       43.75366       40.63917
H         21.26876       44.51149       38.34719
H         23.01893       44.96666       38.34629
H         22.45288       43.54383       37.39040
N         22.93144       41.95731       39.40993
C         23.14475       41.07410       40.55501
C         24.59439       41.11356       41.04506
O         25.20177       40.06737       41.22931
C         22.61679       39.63819       40.27454
C         23.34081       38.90277       39.16853
O         23.28402       39.29170       38.01329
O         24.02252       37.77531       39.44735
H         23.10065       41.60142       38.46140
H         22.53517       41.45217       41.40114
H         21.53446       39.67450       40.02412
H         22.72093       39.04501       41.20986
N         25.20327       42.30701       41.31442
C         26.53953       42.42422       41.89572
C         26.55247       41.91590       43.33634
O         27.29487       40.97584       43.58123
C         27.08248       43.87352       41.76706
C         27.54709       44.20036       40.33742
C         28.95847       43.63713       40.07445
C         29.50852       44.00641       38.69061
N         28.87270       43.23480       37.62317
H         24.69547       43.17543       41.10455
H         27.23776       41.77654       41.32431
H         27.93550       44.04418       42.45928
H         26.31126       44.61488       42.02723
H         27.62853       45.30563       40.24963
H         26.78976       43.85489       39.60093
H         29.01009       42.53682       40.20656
H         29.63237       44.10061       40.82864
H         30.59749       43.77956       38.68026
H         29.38810       45.09813       38.51050
H         27.84316       43.40427       37.59523
H         29.28878       43.52057       36.70760
H         29.06137       42.21564       37.76837
N         25.77388       42.39562       44.35480
C         24.76930       43.44963       44.26163
C         23.41309       42.83538       44.02922
O         23.33274       41.61972       43.91622
C         24.87395       44.40862       45.46819
C         24.70760       43.73539       46.79727
O         23.55215       43.12190       47.11705
O         25.62577       43.75985       47.60064
H         25.82941       41.88736       45.25273
H         24.91068       44.06594       43.37531
H         24.12172       45.21726       45.38657
H         25.87879       44.88599       45.43868
N         22.30885       43.61200       43.85522
C         21.02779       43.05094       43.46155
C         19.99468       43.20396       44.52557
O         20.25863       43.80161       45.55382
H         22.37917       44.63576       43.96965
H         21.11005       41.96535       43.25209
H         20.67473       43.54921       42.53457
N         18.78093       42.62603       44.35519
C         17.70512       42.72018       45.33220
C         16.46406       43.28161       44.63686
O         16.50261       43.42749       43.42063
C         17.50336       41.32256       45.95634
C         18.77507       40.84392       46.63380
O         19.34383       41.57145       47.62650
O         19.30617       39.81036       46.26191
H         18.62010       42.06952       43.49870
H         17.98666       43.42441       46.14118
H         17.20961       40.60434       45.15631
H         16.70416       41.33511       46.71407
N         15.32632       43.67827       45.27565
C         15.05707       43.66209       46.70203
C         15.99013       44.54695       47.49796
O         16.19823       45.69400       47.13022
H         14.56651       44.05277       44.68448
H         15.02420       42.62734       47.09225
H         14.03491       44.07289       46.84950
N         16.50361       44.09216       48.67377
C         17.30689       44.90801       49.58240
C         18.71648       45.10099       49.05100
O         19.31191       44.14369       48.58479
C         17.35332       44.26357       50.98947
C         15.95207       44.23121       51.62334
O         18.19843       45.02092       51.81772
H         16.23540       43.14258       48.97547
H         16.82247       45.90019       49.72798
H         17.75221       43.22727       50.89377
H         18.39989       44.45770       52.60971
H         15.23838       43.64191       51.01253
H         16.00282       43.77294       52.63315
H         15.55715       45.26548       51.73014
N         19.32677       46.31879       49.16855
C         20.69363       46.64880       48.75676
C         21.73971       45.81724       49.49744
O         21.71110       44.59698       49.42595
C         20.90612       46.53005       47.22479
C         19.76888       47.16744       46.38519
C         22.27717       47.10716       46.81462
C         19.52752       48.65606       46.64459
H         18.78601       47.08399       49.59967
H         20.85484       47.72065       49.00779
H         20.92584       45.46119       46.97524
H         18.82069       46.62557       46.58593
H         19.99993       47.02570       45.30625
H         23.10333       46.57331       47.32931
H         22.43291       46.99157       45.72149
H         22.35498       48.18337       47.07403
H         19.21970       48.82691       47.69645
H         20.43118       49.25728       46.42074
H         18.70595       49.01001       45.98686
N         22.75774       46.43128       50.16149
C         23.87162       45.68343       50.74251
C         23.58157       45.20410       52.15828
O         24.44767       44.55304       52.72828
C         25.18415       46.51363       50.69289
C         25.17071       47.75721       51.59144
O         25.44585       46.91360       49.37155
H         22.80304       47.45876       50.12666
H         24.06972       44.79123       50.10780
H         26.02472       45.87701       51.06116
H         25.90859       46.15800       48.92388
H         26.15287       48.27123       51.52219
H         24.38733       48.47914       51.28671
H         25.00571       47.47334       52.65175
N         22.42160       45.51313       52.81152
C         22.20077       45.17170       54.21416
C         22.20905       43.66733       54.41520
O         21.28573       42.99942       53.97330
C         20.87131       45.78841       54.72397
C         20.58488       45.45434       56.19095
O         20.92060       47.18761       54.59257
H         21.70024       46.05992       52.32045
H         23.03078       45.62660       54.80067
H         20.02286       45.37330       54.12986
H         20.43730       47.42789       53.75912
H         20.48011       44.35869       56.33422
H         21.39983       45.83243       56.84317
H         19.62740       45.92495       56.49957
N         23.24215       43.07172       55.07924
C         23.31717       41.64640       55.37638
C         23.12645       40.81610       54.11106
O         22.18499       40.03725       54.03659
C         22.30543       41.25432       56.47903
C         22.45204       42.08887       57.76374
C         21.52200       41.53886       58.85878
C         21.52269       42.37059       60.15238
N         20.90420       43.68512       59.96427
H         24.03420       43.65664       55.38789
H         24.32702       41.42872       55.79320
H         22.47797       40.18261       56.72544
H         21.26455       41.36752       56.10630
H         22.19927       43.14091       57.52583
H         23.50053       42.05210       58.13369
H         21.86602       40.51068       59.10855
H         20.47827       41.47118       58.48271
H         22.55826       42.48359       60.54271
H         20.93084       41.81420       60.91321
H         20.85282       44.17177       60.88821
H         21.46621       44.27569       59.31248
H         19.93168       43.57345       59.59445
N         23.99599       40.93451       53.07022
C         23.85285       40.18875       51.82129
C         23.78178       41.14347       50.60077
O         23.47274       40.45825       49.41209
C         24.94169       39.09658       51.70880
C         24.64130       37.90646       52.62702
C         25.71604       36.86500       52.50826
O         26.97948       37.15485       52.87392
O         25.45058       35.75128       52.08493
H         24.80161       41.56650       53.18331
H         22.87812       39.65609       51.78689
H         25.94102       39.49864       51.96282
H         24.96454       38.70345       50.66906
H         23.66453       37.46597       52.32388
H         24.57019       38.23084       53.68601
N         24.86104       42.13352       50.39503
C         26.24178       41.69203       50.60633
H         26.94007       42.46361       50.21657
H         26.46069       41.62336       51.68975
H         26.46075       40.74049       50.07772
H         24.79085       42.43592       49.40078
Ca        21.36472       41.12693       48.65734
O         22.06415       40.28024       46.12916
H         21.89091       40.00458       45.19505
H         23.02443       40.51636       46.16461
O         20.43394       38.47565       49.61618
H         21.19144       38.44377       48.97868
H         20.75485       39.05042       50.35632
O         20.29059       42.21405       51.28858
H         20.22023       43.17478       51.51386
H         21.24290       41.99789       51.44595

Ca 1.0



