%chk=apoCaM-CA-Ng.loop3.water3.frame765.chk
%nprocshared=20
%mem=10GB
%nosave
#b3lyp/svp scf=(tight,noincore,xqc) Test 
#IOP(5/87=12) Density=Current Pop=(MK,readradii) iop(6/33=2) iop(6/42=6)

apoCaM-CA-Ng.loop3.water3.frame765 

   0  1 
C         94.38366        1.15453       17.90802
C         95.31818        0.56088       18.92106
O         96.23164       -0.15538       18.53756
H         93.62112        1.80334       18.38980
H         94.96769        1.78040       17.19988
H         93.86679        0.34936       17.34867
N         95.17229        0.85304       20.24182
C         96.12646        0.42038       21.25985
C         96.10900       -1.10663       21.42944
O         95.14625       -1.72679       21.00047
C         95.79924        1.19275       22.56597
C         96.87796        1.28153       23.59750
O         96.65324        2.01381       24.70420
O         97.96695        0.76652       23.43205
H         94.39724        1.47887       20.51401
H         97.11482        0.74985       20.90893
H         94.86614        0.79039       23.01637
H         95.61531        2.25558       22.29854
N         97.12938       -1.77802       22.05224
C         97.09662       -3.21386       22.33790
C         96.98090       -3.48744       23.83114
O         96.64061       -4.61862       24.15880
C         98.34273       -3.95743       21.79939
C         98.37517       -4.13920       20.27606
C         99.58504       -5.01115       19.88169
C         99.53211       -5.44764       18.41159
N        100.66569       -6.31538       18.08328
H         97.95245       -1.25722       22.36407
H         96.18451       -3.66905       21.89383
H         98.32955       -4.98738       22.22244
H         99.26935       -3.45917       22.15962
H         98.41221       -3.16036       19.75102
H         97.44425       -4.67117       19.98146
H         99.58258       -5.93827       20.49711
H        100.52798       -4.45752       20.08689
H         99.53823       -4.55754       17.74606
H         98.58850       -6.01273       18.23877
H        101.56382       -5.78939       18.18358
H        100.67786       -7.15219       18.71193
H        100.57289       -6.64498       17.09526
N         97.24863       -2.55431       24.79475
C         97.05881       -2.82289       26.21925
C         96.08686       -1.84685       26.88115
O         95.65426       -2.14329       27.98498
C         98.41557       -2.92565       26.94688
C         99.26936       -1.69330       26.84625
O         98.86162       -0.53831       27.39019
O        100.36230       -1.74627       26.30612
H         97.62099       -1.63648       24.52099
H         96.58130       -3.82009       26.34316
H         98.97523       -3.77536       26.49686
H         98.24999       -3.16250       28.01999
N         95.68300       -0.68328       26.28290
C         94.64658        0.18015       26.83260
C         95.16532        1.39718       27.57692
O         94.32994        2.10468       28.12438
H         96.08495       -0.40313       25.38669
H         94.03740       -0.38973       27.56714
H         93.95081        0.47324       26.01644
N         96.49746        1.66808       27.72923
C         96.99784        2.65826       28.68475
C         97.96118        3.66321       28.07754
O         98.99675        3.26034       27.57389
C         97.77639        1.93798       29.80589
C         96.99074        0.84120       30.47372
N         97.47093       -0.42549       30.49613
O         95.92344        1.09669       31.01020
H         97.18314        1.07947       27.24623
H         96.15192        3.20011       29.16239
H         98.07129        2.68645       30.57314
H         98.70731        1.49923       29.38449
H         98.37733       -0.65705       30.06258
H         96.94468       -1.17933       30.96007
N         97.75148        5.00014       28.21067
C         98.76428        5.99601       27.89147
C         99.16730        6.00914       26.43425
O         98.30829        6.18002       25.58148
H         96.87878        5.33128       28.64993
H         99.65523        5.81824       28.53478
H         98.36915        7.00091       28.15274
N        100.48554        5.90790       26.08514
C        100.95429        6.02266       24.70594
C        100.43483        4.85450       23.83288
O        101.01790        3.66995       24.26813
C        102.50130        6.26886       24.64433
C        103.41553        5.35536       25.45949
C        103.69094        4.02088       25.10106
C        104.04476        5.87744       26.60878
C        104.52443        3.22386       25.89505
C        104.88610        5.08385       27.39261
C        105.12008        3.75225       27.04708
O        105.92275        2.99569       27.82307
H        101.18173        5.81780       26.84018
H        100.50405        6.94853       24.28207
H        102.62694        7.29515       25.05416
H        102.85486        6.32187       23.59272
H        103.28600        3.58247       24.20553
H        103.88143        6.90491       26.90856
H        104.71225        2.19609       25.61025
H        105.35396        5.50614       28.27321
H        106.10274        2.06522       27.62686
N        100.73205        5.07632       22.39969
C         99.84001        4.37778       21.44000
C        100.19576        2.89629       21.35636
O        100.18532        2.21390       22.36693
C         98.31336        4.62553       21.68688
C         97.42899        3.96365       20.58865
C         97.97304        6.12619       21.78859
C         97.61698        4.49217       19.15855
H        100.67667        6.09918       22.18467
H        100.06239        4.81929       20.44542
H         98.03116        4.15812       22.65613
H         96.35937        4.10247       20.85760
H         97.62913        2.87790       20.57372
H         98.48176        6.59500       22.65397
H         98.27628        6.67280       20.87136
H         96.88074        6.26315       21.94136
H         98.64852        4.33623       18.79083
H         96.93715        3.94092       18.47473
H         97.36680        5.56965       19.08779
N        100.49185        2.31794       20.15789
C        100.94029        0.93281       20.02486
C        102.18700        0.79472       19.15945
O        102.67235       -0.31987       19.02950
C         99.81649        0.06892       19.44330
O         99.41851        0.53299       18.17979
H        100.35419        2.87592       19.30379
H        101.19163        0.51631       21.02316
H         98.96809        0.05243       20.15059
H        100.14026       -0.98960       19.35408
H         98.62092        1.10771       18.32005
N        102.74418        1.85513       18.50258
C        103.88297        1.70868       17.60320
C        105.14088        1.30641       18.35870
O        105.14175        1.41251       19.57812
C        104.11335        3.04812       16.90082
H        102.33070        2.79042       18.59681
H        103.62485        0.93774       16.84656
H        104.97215        2.99584       16.23306
H        103.21519        3.32687       16.30834
H        104.31809        3.84855       17.64331
N        106.27631        0.84465       17.75032
C        106.41350        0.45715       16.34362
C        107.88696        0.47787       15.94945
O        108.67081       -0.14120       16.65690
C        105.88424       -0.97055       16.16169
H        107.05535        0.59903       18.38203
H        105.81835        1.10048       15.67897
H        104.81028       -1.03117       16.43085
H        105.99305       -1.28193       15.09987
H        106.44537       -1.68527       16.80174
N        108.38594        1.10207       14.84033
C        107.62097        1.80200       13.81152
C        106.98633        3.06859       14.34027
O        105.80954        3.28291       14.08632
C        108.54337        2.14048       12.61769
C        107.76678        2.73273       11.42931
C        108.67681        2.97315       10.26015
O        108.81159        4.09823        9.80668
O        109.33679        1.94395        9.69452
H        109.40390        1.01053       14.68804
H        106.83937        1.11498       13.41451
H        109.02340        1.19576       12.27783
H        109.34437        2.84418       12.93633
H        107.28792        3.69023       11.72882
H        106.97028        2.02485       11.11262
N        107.71300        3.96969       15.05665
C        107.13607        5.19491       15.56756
H        106.28922        4.96819       16.24764
H        107.89858        5.76236       16.14167
H        106.77581        5.82488       14.72746
H        108.70462        3.77461       15.26049
Ca        99.46541        2.28489       25.14606
O        102.31379        0.84984       24.57308
H        102.56599        1.03966       23.63443
H        102.98815        0.19558       24.88459
O        101.35439        1.40382       27.57410
H        101.45471        2.36074       27.80776
H        101.00851        0.98149       28.40007
O        100.49289       -0.93395       23.11277
H        101.06725       -1.49998       22.53900
H        100.01422       -1.57535       23.69353

Ca 1.0



