%chk=apoCaM-CA-Ng.loop3.water3.frame648.chk
%nprocshared=20
%mem=10GB
%nosave
#b3lyp/svp scf=(tight,noincore,xqc) Test 
#IOP(5/87=12) Density=Current Pop=(MK,readradii) iop(6/33=2) iop(6/42=6)

apoCaM-CA-Ng.loop3.water3.frame648 

   0  1 
C        -31.69776       63.19847       12.61352
C        -32.41556       63.92145       11.51856
O        -33.09983       64.89331       11.81025
H        -30.60411       63.30307       12.44789
H        -31.94185       63.64839       13.60094
H        -31.97529       62.12644       12.61974
N        -32.28657       63.51608       10.21975
C        -32.79901       64.30129        9.10686
C        -33.93490       63.59726        8.38032
O        -33.75687       62.48830        7.89715
C        -31.64347       64.63214        8.14231
C        -31.88062       65.96481        7.44888
O        -30.83449       66.36511        6.62132
O        -33.08097       66.10614        6.75554
H        -31.74480       62.66347       10.01105
H        -33.17279       65.26387        9.50892
H        -31.43171       63.79250        7.45176
H        -30.71968       64.80574        8.73001
N        -35.13267       64.23120        8.24262
C        -36.29877       63.71056        7.54049
C        -35.97428       63.34787        6.10199
O        -36.20634       62.20691        5.72734
C        -37.42506       64.77844        7.57618
C        -38.73268       64.37045        6.86917
C        -39.43100       63.13468        7.45968
C        -39.87969       63.33981        8.91555
N        -40.58816       62.16146        9.41179
H        -35.22395       65.15660        8.66756
H        -36.64829       62.80143        8.07578
H        -37.05580       65.70539        7.08366
H        -37.64311       65.04832        8.63083
H        -38.51807       64.17686        5.79621
H        -39.43668       65.23016        6.91256
H        -38.76633       62.24880        7.38678
H        -40.33151       62.93087        6.84052
H        -40.55420       64.22335        8.97221
H        -39.00043       63.52521        9.56825
H        -39.95542       61.32887        9.39026
H        -40.88823       62.33355       10.39850
H        -41.43559       61.97742        8.82715
N        -35.43529       64.26147        5.24229
C        -35.15546       63.96055        3.83885
C        -33.67607       63.70671        3.57632
O        -33.34076       63.42131        2.43455
C        -35.76862       65.03330        2.90124
C        -35.19518       66.41911        3.01761
O        -34.22466       66.69647        3.89631
O        -35.61470       67.30952        2.29643
H        -35.19556       65.19308        5.60831
H        -35.65327       63.00699        3.55802
H        -36.86076       65.09563        3.09596
H        -35.62597       64.70455        1.84898
N        -32.74298       63.70010        4.57688
C        -31.36305       63.29340        4.34762
C        -30.57869       64.21635        3.43818
O        -29.50235       63.81640        3.01801
H        -33.02597       63.89373        5.54496
H        -31.38850       62.27861        3.89283
H        -30.81448       63.20663        5.30781
N        -31.03310       65.45521        3.09373
C        -30.37189       66.31699        2.12230
C        -29.88442       67.60856        2.76596
O        -30.69253       68.37662        3.26119
C        -31.39143       66.63417        1.00531
C        -30.86833       67.51592       -0.10490
N        -31.71303       67.94018       -1.07173
O        -29.69614       67.86118       -0.13592
H        -31.90756       65.79727        3.50885
H        -29.50438       65.79237        1.66483
H        -32.26423       67.14650        1.46707
H        -31.75566       65.68428        0.55594
H        -32.70801       67.67147       -1.05394
H        -31.37686       68.55295       -1.82897
N        -28.56800       67.95342        2.71116
C        -28.06998       69.24873        3.14552
C        -28.16888       69.46927        4.64100
O        -27.55971       68.72374        5.39448
H        -27.89927       67.31045        2.26053
H        -28.61454       70.04268        2.58784
H        -26.99759       69.33265        2.86753
N        -28.87456       70.52989        5.13190
C        -28.91736       70.90614        6.55013
C        -29.56757       69.84291        7.42121
O        -30.05866       68.85777        6.90164
C        -29.74762       72.20552        6.71722
C        -29.17358       73.39895        5.99936
C        -27.93285       73.93069        6.38541
C        -29.89345       74.01506        4.96177
C        -27.42351       75.06554        5.74727
C        -29.38004       75.14597        4.32168
C        -28.14760       75.67826        4.71369
O        -27.67375       76.77896        4.09623
H        -29.36484       71.13103        4.45147
H        -27.87813       71.07105        6.90870
H        -29.83524       72.49236        7.78566
H        -30.77636       71.99931        6.35018
H        -27.36822       73.47669        7.19018
H        -30.85460       73.62434        4.65040
H        -26.47049       75.47142        6.06189
H        -29.94572       75.61347        3.52554
H        -26.83307       77.18757        4.34690
N        -29.65005       70.03340        8.77727
C        -30.40110       69.19763        9.71934
C        -31.90200       69.31880        9.41491
O        -32.25176       69.66460        8.29657
C        -29.82875       67.74211        9.79658
C        -30.53847       66.83032       10.83157
C        -28.30877       67.75370       10.05086
C        -30.36477       67.23232       12.30004
H        -29.19037       70.86423        9.17742
H        -30.25962       69.66674       10.71670
H        -29.97312       67.26452        8.81246
H        -30.13851       65.79771       10.73443
H        -31.61724       66.78245       10.58752
H        -27.91349       66.71497       10.07814
H        -27.77659       68.28920        9.23743
H        -28.06532       68.25754       11.00883
H        -30.73793       68.25453       12.49792
H        -30.93361       66.52366       12.93855
H        -29.29996       67.17368       12.60324
N        -32.85346       69.12223       10.37367
C        -34.28475       69.34343       10.14687
C        -34.94040       70.24233       11.18473
O        -36.13699       70.46120       11.06124
C        -35.00244       67.99049       10.08904
O        -34.74398       67.38373        8.85920
H        -32.56092       68.79231       11.30305
H        -34.46927       69.84252        9.16848
H        -36.10242       68.13162       10.13238
H        -34.71600       67.32883       10.93761
H        -33.76408       67.32889        8.76250
N        -34.25828       70.81303       12.22164
C        -34.93693       71.66047       13.20228
C        -35.49628       72.92272       12.54016
O        -35.04948       73.24289       11.44611
C        -33.94277       72.04650       14.30767
H        -33.25136       70.63463       12.33123
H        -35.74610       71.05468       13.65127
H        -33.09915       72.62621       13.87594
H        -34.40380       72.65733       15.10249
H        -33.53799       71.12741       14.78189
N        -36.43463       73.73872       13.11215
C        -37.18163       73.46015       14.33663
C        -37.85828       74.73434       14.84281
O        -38.58669       75.34829       14.07649
C        -38.27512       72.41073       14.08295
H        -36.66094       74.60835       12.60371
H        -36.50449       73.06099       15.10024
H        -38.82499       72.21266       15.02959
H        -38.99964       72.77219       13.32275
H        -37.86516       71.44786       13.72969
N        -37.72544       75.19388       16.12485
C        -36.97408       74.50116       17.16593
C        -35.46598       74.65015       16.99409
O        -34.73909       74.00180       17.73244
C        -37.38957       74.98014       18.57442
C        -38.89337       74.77054       18.82987
C        -39.25257       75.10360       20.24777
O        -39.74501       74.25168       20.97037
O        -39.04323       76.34402       20.72803
H        -38.25925       76.03989       16.37947
H        -37.24357       73.42217       17.12924
H        -37.12761       76.05252       18.71133
H        -36.82572       74.38081       19.32420
H        -39.15862       73.70953       18.62626
H        -39.49696       75.41425       18.15684
N        -34.92116       75.48756       16.06052
C        -33.49234       75.65006       15.87432
H        -32.89622       75.00271       16.55093
H        -33.22828       75.39555       14.82664
H        -33.21438       76.70752       16.06810
H        -35.52818       76.05545       15.45459
Ca       -32.19943       67.62139        5.32540
O        -35.23745       68.68399        5.97567
H        -35.73555       68.87037        5.14040
H        -35.82445       69.02400        6.69664
O        -33.25113       70.98369        6.07275
H        -33.24906       71.48735        6.92495
H        -33.28927       71.68567        5.37762
O        -33.13606       70.05768        3.16442
H        -32.35908       70.60944        2.89435
H        -33.14743       69.30809        2.51813

Ca 1.0



