%chk=apoCaM-CA-Ng.loop1.water2.frame1264.chk
%nprocshared=20
%mem=10GB
%nosave
#b3lyp/svp scf=(tight,noincore,xqc) Test 
#IOP(5/87=12) Density=Current Pop=(MK,readradii) iop(6/33=2) iop(6/42=6)

apoCaM-CA-Ng.loop1.water2.frame1264 

   0  1 
C         37.04275       31.61902       35.15777
C         37.37251       32.83169       35.97844
O         36.49866       33.66272       36.18535
H         35.99071       31.65692       34.80010
H         37.71369       31.56266       34.27453
H         37.17496       30.70856       35.77794
N         38.63767       33.00761       36.46266
C         39.03506       34.15651       37.28159
C         39.61932       35.27967       36.42853
O         40.66890       35.82375       36.74445
C         40.00218       33.70259       38.40267
C         41.33029       33.15598       37.90977
O         42.24246       32.73739       38.80552
O         41.60054       33.09831       36.71894
H         39.33713       32.28767       36.23146
H         38.12489       34.57585       37.76627
H         39.50341       32.91604       39.00748
H         40.21332       34.56779       39.06690
N         38.97702       35.65842       35.29800
C         39.45867       36.67864       34.38022
C         39.32603       38.09072       34.93204
O         40.30818       38.81111       34.82049
C         38.80329       36.49246       32.99613
C         39.27644       35.13571       32.42404
C         38.63066       34.75494       31.09675
C         39.18374       33.39275       30.64095
N         38.51767       32.92586       29.42909
H         38.13160       35.13957       35.02850
H         40.54461       36.51153       34.18961
H         39.13507       37.29732       32.30306
H         37.69619       36.53538       33.08592
H         39.04377       34.32060       33.14140
H         40.38210       35.17075       32.29286
H         38.84447       35.52708       30.32629
H         37.53197       34.68034       31.24519
H         39.03059       32.63659       31.44454
H         40.27860       33.47969       30.45503
H         38.65027       33.61537       28.65503
H         38.93277       32.00811       29.14738
H         37.49798       32.78990       29.61811
N         38.23105       38.60959       35.56548
C         36.99437       37.92247       35.93649
C         36.93197       37.79893       37.45804
O         37.80539       38.32079       38.13770
C         35.77199       38.64940       35.34029
C         35.82192       40.13375       35.56124
O         35.91765       40.63483       36.80223
O         35.84019       40.88944       34.60411
H         38.32362       39.58438       35.89513
H         36.95874       36.89709       35.54724
H         34.83421       38.23069       35.76260
H         35.75501       38.46982       34.24300
N         35.97992       37.03022       38.06103
C         36.01660       36.73376       39.48784
C         35.35500       37.78525       40.34902
O         34.78039       38.73130       39.83286
H         35.30965       36.51369       37.47090
H         37.06528       36.54875       39.80777
H         35.45410       35.79189       39.67087
N         35.38178       37.64289       41.70463
C         34.59982       38.44949       42.64632
C         33.82465       37.50693       43.57609
O         34.10807       36.31523       43.55205
C         35.54943       39.34711       43.46567
C         36.26994       40.33494       42.59481
O         37.61511       40.33624       42.54850
O         35.64142       41.15726       41.94679
H         35.96884       36.88585       42.09194
H         33.87685       39.08385       42.09237
H         36.28889       38.71315       44.00255
H         34.99721       39.93037       44.22193
N         32.84080       37.89351       44.44128
C         32.23534       39.20812       44.56942
C         31.46210       39.57442       43.33016
O         30.68781       38.75757       42.85297
H         32.43873       37.16154       45.04886
H         32.96088       39.98536       44.87130
H         31.48691       39.15019       45.39006
N         31.56181       40.82151       42.79568
C         30.79074       41.23491       41.62726
C         31.39167       40.60889       40.37680
O         32.60292       40.59194       40.24609
C         30.70621       42.77505       41.51899
C         30.04529       43.38148       42.77289
O         29.93815       43.10823       40.38992
H         32.16689       41.51049       43.26832
H         29.73243       40.90767       41.74670
H         31.72561       43.18577       41.40628
H         30.02693       44.08796       40.25521
H         29.02126       42.97183       42.91121
H         30.63601       43.16957       43.68793
H         29.97064       44.48463       42.67143
N         30.58399       40.07567       39.41933
C         31.01624       39.36858       38.21085
C         31.91118       40.21937       37.26206
O         33.28442       40.29500       37.59082
C         31.65778       37.98669       38.52287
C         30.76236       37.16070       39.48117
C         31.90821       37.21844       37.20535
C         31.40764       35.84943       39.93588
H         29.56502       40.15960       39.55755
H         30.08643       39.14617       37.63890
H         32.62159       38.15630       39.02855
H         29.78075       36.94837       39.00433
H         30.57683       37.74968       40.40248
H         30.94524       37.01953       36.68602
H         32.55766       37.79789       36.51979
H         32.42649       36.25667       37.38171
H         32.38220       36.05338       40.42982
H         30.74024       35.34459       40.66513
H         31.56198       35.15286       39.08833
N         31.31125       41.47666       36.82583
C         31.79951       41.98394       35.52305
C         31.22504       43.38061       35.26675
O         31.47647       43.93862       34.20784
C         31.57142       41.02945       34.31157
C         30.10987       40.72632       34.00479
O         32.25950       39.81793       34.49541
H         30.27656       41.34051       36.74649
H         32.88759       42.08034       35.55553
H         31.97920       41.53361       33.40016
H         33.19393       39.96240       34.18972
H         29.63984       40.16955       34.83966
H         29.55073       41.66518       33.81248
H         30.05916       40.09651       33.08983
N         30.49332       44.02852       36.22419
C         29.93062       45.36128       36.07939
C         30.77995       46.30117       36.90674
O         30.91951       46.09401       38.10417
C         28.44309       45.33057       36.51603
C         27.82587       46.72571       36.62540
O         27.69458       44.58445       35.59024
H         30.36621       43.59656       37.14998
H         29.97373       45.70011       35.02076
H         28.34966       44.87533       37.53050
H         27.90887       43.62737       35.74056
H         26.75757       46.63968       36.91787
H         28.33684       47.30673       37.42026
H         27.89870       47.27055       35.66165
N         31.43460       47.33030       36.29126
C         32.41009       48.19854       36.93849
C         33.55882       47.33730       37.42955
O         33.88280       47.34824       38.61012
C         31.76618       49.06511       38.04978
C         30.52684       49.85692       37.59109
C         30.79769       50.80759       36.41815
C         29.52819       51.58262       36.04093
N         29.76918       52.44650       34.88609
H         31.29215       47.47314       35.27979
H         32.82831       48.88291       36.16914
H         32.53077       49.77233       38.43863
H         31.44597       48.42046       38.89587
H         30.15597       50.44379       38.45991
H         29.72824       49.14641       37.29602
H         31.12026       50.22205       35.53202
H         31.60188       51.52332       36.69445
H         29.19909       52.20177       36.90513
H         28.71325       50.86580       35.79271
H         30.52656       53.13454       35.10175
H         30.04301       51.86794       34.05850
H         28.89119       52.96606       34.65755
N         34.16215       46.48551       36.55017
C         35.03878       45.40693       36.98122
C         34.85892       44.19044       36.09598
O         34.46995       43.19271       36.65513
C         36.50868       45.81736       37.11487
C         37.40685       44.66857       37.63254
C         37.12522       44.26986       39.06883
O         36.09264       43.47734       39.47339
O         37.90397       44.66088       39.92407
H         33.79097       46.46505       35.58823
H         34.71172       45.10258       38.00226
H         36.59207       46.68453       37.80630
H         36.91115       46.14783       36.13922
H         38.43945       45.08517       37.59720
H         37.40629       43.78058       36.96521
N         35.10125       44.10598       34.75597
C         35.57030       45.15481       33.88310
H         36.54260       44.84318       33.44619
H         34.83750       45.28639       33.06059
H         35.69371       46.12604       34.38480
H         34.93242       43.19594       34.30231
Ca        34.52682       41.88845       38.80496
O         34.01708       43.85071       41.13889
H         34.81325       44.01483       41.70243
H         33.70431       44.75058       40.86971
O         37.71910       40.88759       39.50307
H         38.25579       40.21176       39.98776
H         36.84379       40.44858       39.36063

Ca 1.0



