%chk=apoCaM-CA-Ng.loop3.water5.frame318.chk
%nprocshared=20
%mem=10GB
%nosave
#b3lyp/svp scf=(tight,noincore,xqc) Test 
#IOP(5/87=12) Density=Current Pop=(MK,readradii) iop(6/33=2) iop(6/42=6)

apoCaM-CA-Ng.loop3.water5.frame318 

   0  1 
C         62.52540       76.83244       49.46533
C         63.36418       75.61850       49.75398
O         63.10582       74.56943       49.18088
H         61.48857       76.65592       49.82325
H         62.92387       77.72738       49.98849
H         62.50221       77.04230       48.37582
N         64.35553       75.67780       50.69219
C         65.19581       74.55120       51.08715
C         64.42220       73.36945       51.66831
O         65.06636       72.37200       51.96551
C         66.21659       74.19632       49.97995
C         67.27209       75.27101       49.81784
O         68.17612       75.11333       49.01353
O         67.26580       76.38102       50.58516
H         64.51602       76.57012       51.18038
H         65.82351       74.85864       51.94995
H         65.70437       74.03432       49.01404
H         66.76865       73.27198       50.26268
N         63.08578       73.43023       51.97654
C         62.43125       72.42615       52.81777
C         61.54571       71.51115       51.98488
O         60.42893       71.19386       52.37012
C         61.68454       73.13880       53.97752
C         62.61677       74.06154       54.79982
C         61.85990       75.08569       55.66382
C         61.05969       74.48686       56.82555
N         60.39036       75.54994       57.58084
H         62.52868       74.25817       51.72837
H         63.19733       71.75150       53.25878
H         61.19653       72.40196       54.65201
H         60.89320       73.76360       53.50994
H         63.21638       74.68192       54.10219
H         63.32802       73.46167       55.40923
H         61.17751       75.66713       55.00428
H         62.60410       75.79422       56.08859
H         61.74742       73.93411       57.50335
H         60.29646       73.77993       56.43697
H         59.80569       75.12599       58.33634
H         61.09876       76.18394       58.01841
H         59.76974       76.10837       56.94980
N         62.04761       71.01252       50.82367
C         61.45188       69.95289       50.01325
C         62.59361       69.00616       49.60678
O         63.74868       69.40455       49.68272
C         60.69793       70.61304       48.82359
C         60.06676       69.67246       47.81848
O         60.75454       68.92369       47.15963
O         58.75417       69.70078       47.54555
H         62.94913       71.39571       50.50784
H         60.71997       69.38018       50.62499
H         61.39871       71.27933       48.27528
H         59.89530       71.25719       49.25164
N         62.37994       67.71774       49.22041
C         63.49143       66.83930       48.85707
C         64.15273       67.20219       47.53235
O         65.09528       66.52361       47.15086
H         61.42415       67.33253       49.23442
H         63.11866       65.79925       48.75871
H         64.24824       66.85044       49.67488
N         63.71787       68.25120       46.77958
C         64.24600       68.63808       45.48521
C         65.00076       69.96292       45.59579
O         65.50537       70.43869       44.58851
C         63.07065       68.75863       44.48647
C         62.23729       67.50426       44.36779
N         62.78855       66.33577       43.97271
O         61.04143       67.55009       44.61850
H         62.97866       68.85049       47.13476
H         64.96633       67.88066       45.11121
H         63.47027       69.01570       43.48828
H         62.39680       69.57526       44.81663
H         63.79118       66.27563       43.74990
H         62.20693       65.48843       43.88922
N         65.13984       70.60054       46.79893
C         65.87788       71.82948       47.01808
C         65.33421       72.95736       46.18772
O         66.13346       73.65524       45.57816
H         64.71614       70.20226       47.64033
H         66.94792       71.66792       46.75979
H         65.82315       72.07365       48.09301
N         63.98953       73.11329       45.99684
C         63.51295       73.78264       44.78474
C         62.51095       72.91565       44.06094
O         62.03189       71.95007       44.63174
C         63.13690       75.26585       44.98932
C         61.69208       75.60732       45.29378
C         61.01548       76.50099       44.43693
C         61.01759       75.10601       46.41752
C         59.70707       76.90092       44.70723
C         59.69931       75.50666       46.68481
C         59.04531       76.41329       45.83423
O         57.78881       76.83007       46.09193
H         63.36010       72.46793       46.50050
H         64.37518       73.80301       44.08090
H         63.40057       75.78825       44.04354
H         63.80234       75.69578       45.76872
H         61.50632       76.91207       43.56282
H         61.50932       74.41738       47.08879
H         59.21324       77.60217       44.04436
H         59.18902       75.12258       47.55839
H         57.30034       76.54569       46.87694
N         62.20206       73.14642       42.76400
C         61.40874       72.20095       41.99045
C         62.30497       71.04447       41.56466
O         61.93369       69.89737       41.76131
C         60.66700       72.93353       40.84321
C         59.87839       74.16910       41.37825
C         59.72338       71.97516       40.09398
C         58.99096       73.90501       42.60538
H         62.65292       73.93834       42.27963
H         60.60321       71.77136       42.62665
H         61.40302       73.31281       40.10023
H         59.25765       74.58789       40.55747
H         60.59832       74.96212       41.67287
H         60.29766       71.14825       39.62724
H         58.96075       71.54003       40.77280
H         59.19958       72.51960       39.27878
H         59.60862       73.62726       43.48664
H         58.45229       74.83533       42.87982
H         58.25032       73.10401       42.41288
N         63.54384       71.29254       41.05300
C         64.53387       70.26664       40.71761
C         64.03507       69.32165       39.63961
O         64.31295       68.13252       39.71378
C         65.83398       70.94280       40.24033
O         66.32201       71.83909       41.20536
H         63.81753       72.27941       40.93925
H         64.79037       69.67457       41.62598
H         65.62598       71.51694       39.31240
H         66.61828       70.19062       39.99813
H         66.61155       71.29910       41.98585
N         63.25137       69.78958       38.62771
C         62.69335       68.98174       37.54963
C         61.92657       67.76957       38.06916
O         62.03538       66.69647       37.48983
C         63.78574       68.60649       36.53639
H         62.99276       70.78735       38.63573
H         61.96554       69.62646       37.00994
H         64.55222       67.94812       36.99707
H         63.34040       68.08448       35.66225
H         64.28518       69.52745       36.16590
N         61.14974       67.86991       39.18651
C         60.39470       66.75531       39.74843
C         58.93257       67.12560       39.91182
O         58.60401       68.30356       39.95167
C         60.98818       66.35767       41.10069
H         61.11712       68.77053       39.68184
H         60.45854       65.86762       39.08066
H         60.97635       67.22329       41.79415
H         60.41304       65.52295       41.55615
H         62.04071       66.02498       40.96945
N         57.98838       66.14063       39.94320
C         56.54393       66.35587       40.02564
C         56.08486       67.42412       39.03302
O         55.30594       68.29291       39.40461
C         56.09598       66.70968       41.46851
C         56.48348       65.65667       42.51673
C         56.02222       66.07608       43.88723
O         56.76381       66.92292       44.63503
O         55.00320       65.59623       44.35883
H         58.30660       65.16630       39.82336
H         56.05705       65.39350       39.74846
H         54.98455       66.79444       41.47722
H         56.51508       67.69329       41.75306
H         57.58004       65.48321       42.55146
H         55.99089       64.69821       42.24243
N         56.59462       67.46677       37.76969
C         56.27561       68.52218       36.82620
H         55.50659       69.22436       37.21376
H         57.19431       69.11004       36.61387
H         55.90133       68.08028       35.88137
H         57.28694       66.76111       37.47756
Ca        58.10438       68.35284       45.81322
O         56.13800       70.01301       45.60480
H         55.96193       70.95970       45.38993
H         55.26692       69.61438       45.84900
O         58.95800       71.00118       44.81274
H         58.73388       71.78117       45.37710
H         59.91326       70.82315       44.99255
O         58.40081       68.85941       43.03514
H         58.71267       68.09646       42.49062
H         58.75240       69.66058       42.57484
O         58.97962       65.56398       45.94845
H         58.30077       64.84722       45.87283
H         59.80387       65.10405       46.24428
O         56.81836       67.05336       47.75227
H         56.71955       67.23222       48.71874
H         55.92913       67.24313       47.35955

Ca 1.0



