%chk=apoCaM-CA-Ng.loop2.water5.frame1109.chk
%nprocshared=20
%mem=10GB
%nosave
#b3lyp/svp scf=(tight,noincore,xqc) Test 
#IOP(5/87=12) Density=Current Pop=(MK,readradii) iop(6/33=2) iop(6/42=6)

apoCaM-CA-Ng.loop2.water5.frame1109 

   -2  1 
C         49.58221      -20.85446       61.33802
C         50.92903      -21.50007       61.55526
O         51.61679      -21.06539       62.46703
H         48.97714      -20.95362       62.26269
H         49.73024      -19.77434       61.12462
H         48.99024      -21.28281       60.51057
N         51.42175      -22.52315       60.79537
C         50.73265      -23.15623       59.67616
C         51.76283      -23.60027       58.64247
O         52.59944      -22.77256       58.30766
C         49.75981      -24.22825       60.22516
C         50.44232      -25.25017       61.10035
O         51.24950      -26.03300       60.63318
O         50.15371      -25.30951       62.41442
H         52.36083      -22.87809       61.03319
H         50.15253      -22.39306       59.11965
H         49.20350      -24.73106       59.40679
H         49.00986      -23.70798       60.85751
N         51.77965      -24.84737       58.07738
C         52.79147      -25.28466       57.11961
C         54.18965      -25.29490       57.73070
O         55.15311      -25.27572       56.97628
C         52.72579      -24.44390       55.82854
H         51.05061      -25.53122       58.31355
H         52.56704      -26.32936       56.81107
H         53.43228      -24.84612       55.07099
H         51.70304      -24.49221       55.39814
H         52.98850      -23.38098       56.00014
N         54.38213      -25.35889       59.08610
C         55.70376      -25.31123       59.70430
C         56.05212      -26.58762       60.44068
O         55.24185      -27.49989       60.49122
C         55.81439      -24.04320       60.57970
C         54.91606      -23.82734       61.78753
O         54.04698      -24.71806       62.32064
O         54.99706      -22.74080       62.33763
H         53.56866      -25.42431       59.71193
H         56.48279      -25.20913       58.91832
H         55.61930      -23.19006       59.89296
H         56.86080      -23.93963       60.93561
N         57.29123      -26.73807       60.99128
C         57.68290      -27.89583       61.77696
C         58.18820      -27.42859       63.11569
O         57.47189      -26.70705       63.79352
H         57.99183      -25.99334       60.85793
H         58.47517      -28.46049       61.24213
H         56.82400      -28.58244       61.94071
N         59.41840      -27.79753       63.57462
C         59.92010      -27.33896       64.86793
C         60.14729      -25.83407       64.86544
O         60.16593      -25.21622       63.80886
C         61.22982      -28.06674       65.24298
C         61.00948      -29.54452       65.45764
N         60.22622      -29.98237       66.47230
O         61.55751      -30.35310       64.72353
H         59.98983      -28.44181       63.00595
H         59.14808      -27.56731       65.63569
H         61.65208      -27.65475       66.18430
H         61.97531      -27.90323       64.43231
H         59.77475      -29.31585       67.11569
H         60.08277      -30.99112       66.62829
N         60.28152      -25.17237       66.04921
C         60.47461      -23.73227       66.14899
C         61.86414      -23.31220       65.71621
O         62.64264      -24.16870       65.31978
H         60.19384      -25.70795       66.92674
H         60.37426      -23.44584       67.21792
H         59.68775      -23.20527       65.56791
N         62.30911      -22.02378       65.81430
C         61.52817      -20.87340       66.26840
C         61.65996      -19.75382       65.24230
O         62.78027      -19.41407       64.88488
C         62.04585      -20.40623       67.64734
C         61.23287      -19.21757       68.17561
O         61.92868      -21.45561       68.57497
H         63.30012      -21.85200       65.57940
H         60.45855      -21.14059       66.40445
H         63.11030      -20.08014       67.57029
H         62.77418      -21.97441       68.54202
H         61.61056      -18.91573       69.17473
H         61.31627      -18.34307       67.49658
H         60.16028      -19.49483       68.27104
N         60.55866      -19.12076       64.74339
C         60.62139      -18.09675       63.69458
C         60.11484      -16.74259       64.21435
O         59.19361      -16.76945       65.02024
C         59.82102      -18.57579       62.44855
C         58.28179      -18.57139       62.68339
C         60.33389      -19.95525       61.98925
C         57.44958      -19.03439       61.48604
H         59.63441      -19.39428       65.10813
H         61.65500      -17.99281       63.33736
H         60.05115      -17.86245       61.64118
H         57.96193      -17.53140       62.90828
H         58.01411      -19.21484       63.54553
H         59.87957      -20.24651       61.02105
H         61.43375      -19.92641       61.83643
H         60.09743      -20.73773       62.74176
H         57.63370      -20.10369       61.26147
H         56.37174      -18.91915       61.72597
H         57.66576      -18.43135       60.58563
N         60.55574      -15.50808       63.79258
C         61.65555      -15.22668       62.85753
C         61.70545      -13.73842       62.42670
O         60.96405      -12.91672       62.94393
C         63.02574      -15.56448       63.52100
C         63.25877      -14.77856       64.78688
O         62.44841      -14.94721       65.85005
O         64.19733      -14.00254       64.86482
H         60.04303      -14.70177       64.17991
H         61.49831      -15.82348       61.93412
H         63.84787      -15.35654       62.80428
H         63.12657      -16.62625       63.78845
N         62.64437      -13.33361       61.51357
C         62.98582      -11.93749       61.21922
C         63.00463      -11.66151       59.70791
O         63.69518      -12.39541       59.01618
C         64.40703      -11.71661       61.78671
C         64.97502      -10.34176       61.52582
C         66.13327      -10.20508       60.74029
C         64.37552       -9.19271       62.06814
C         66.67838       -8.94271       60.49704
C         64.92453       -7.92933       61.82100
C         66.07473       -7.80499       61.03630
H         63.24217      -14.05510       61.08538
H         62.32046      -11.23904       61.75271
H         65.08045      -12.48225       61.34106
H         64.39524      -11.89261       62.88453
H         66.61616      -11.07590       60.31434
H         63.48727       -9.27348       62.68190
H         67.57037       -8.84869       59.89116
H         64.46051       -7.04582       62.23949
H         66.50058       -6.82820       60.84731
N         62.36948      -10.58930       59.11282
C         61.54092       -9.58566       59.76946
C         60.32647      -10.22877       60.38332
O         60.13445      -10.13836       61.58690
C         61.15500       -8.60688       58.64178
C         62.34153       -8.73141       57.71070
C         62.57491      -10.24006       57.72074
H         62.16001       -9.05605       60.52281
H         60.28740       -8.98036       58.05630
H         60.90790       -7.57932       58.98322
H         62.19411       -8.29499       56.69930
H         63.21301       -8.23650       58.19641
H         61.81450      -10.76966       57.10420
H         63.59964      -10.46031       57.35139
N         59.50313      -10.97040       59.59277
C         58.48337      -11.85685       60.10667
C         57.11742      -11.40803       59.60566
O         56.88471      -11.47523       58.40687
C         58.85291      -13.25032       59.57128
C         58.03037      -14.41070       60.11091
C         58.41918      -15.63489       59.33484
O         59.11377      -16.61434       59.92394
O         58.16223      -15.71706       58.14402
H         59.67039      -10.99680       58.57555
H         58.52208      -11.87532       61.21404
H         59.91961      -13.46086       59.82059
H         58.77453      -13.21766       58.46046
H         56.93980      -14.24285       59.99440
H         58.26560      -14.53444       61.19200
N         56.15300      -10.90743       60.42886
C         56.33885      -10.68385       61.84546
H         57.17811       -9.97200       62.00402
H         55.42017      -10.23420       62.27848
H         56.54436      -11.64009       62.36879
H         55.24855      -10.62992       60.01637
Ca        53.36023      -26.86751       62.18362
O         54.95990      -27.30765       64.96464
H         54.97319      -26.50773       64.38080
H         55.28160      -28.04511       64.38694
O         53.14927      -29.81460       61.60783
H         54.00144      -30.09061       61.18617
H         52.85773      -30.60743       62.12391
O         50.21904      -28.35043       62.69269
H         49.63584      -28.18028       63.47459
H         49.69765      -28.01974       61.91885
O         52.55207      -29.42244       64.71245
H         51.58587      -29.59124       64.84654
H         52.91885      -29.34208       65.62843
O         52.10467      -26.32443       65.49637
H         52.45125      -26.82727       66.27595
H         51.40993      -25.72968       65.87508

Ca 1.0



