%chk=apoCaM-CA-Ng.loop3.water4.frame216.chk
%nprocshared=20
%mem=10GB
%nosave
#b3lyp/svp scf=(tight,noincore,xqc) Test 
#IOP(5/87=12) Density=Current Pop=(MK,readradii) iop(6/33=2) iop(6/42=6)

apoCaM-CA-Ng.loop3.water4.frame216 

   0  1 
C         52.59993       25.86551       71.21002
C         54.08750       26.06632       71.21094
O         54.53733       27.14384       71.56787
H         52.12357       26.59835       70.52671
H         52.32958       24.84293       70.87041
H         52.20422       26.01095       72.23696
N         54.91739       25.06370       70.80845
C         56.37304       25.15161       70.78185
C         56.83664       26.28004       69.87437
O         57.63912       27.10204       70.29859
C         56.95002       25.27978       72.21436
C         56.51626       24.14526       73.09761
O         55.80329       24.39422       74.21146
O         56.81383       22.99558       72.81677
H         54.49934       24.17577       70.49064
H         56.76009       24.20404       70.34466
H         56.62283       26.23794       72.67238
H         58.06109       25.28625       72.17321
N         56.34830       26.39088       68.60388
C         56.77727       27.43935       67.68370
C         55.63738       28.41913       67.46231
O         55.27493       28.69688       66.32570
C         57.23844       26.81139       66.34941
C         58.33013       25.74365       66.50584
C         58.64849       25.12297       65.13453
C         59.60942       23.92639       65.20734
N         60.93874       24.30019       65.68833
H         55.62878       25.72369       68.28493
H         57.61890       28.02020       68.11971
H         57.60285       27.61479       65.67127
H         56.35447       26.32598       65.87724
H         57.95905       24.93908       67.17711
H         59.23694       26.20019       66.95552
H         59.05951       25.89928       64.45262
H         57.70027       24.74354       64.69301
H         59.70600       23.50167       64.18316
H         59.17788       23.13756       65.86295
H         61.55506       23.45594       65.65856
H         61.34877       25.03877       65.07197
H         60.89321       24.63836       66.67530
N         54.99841       28.96957       68.53133
C         53.88797       29.89677       68.37519
C         54.41059       31.26849       67.98533
O         55.46775       31.65961       68.46224
C         53.07428       29.98773       69.67482
C         51.78064       30.72395       69.44456
O         51.51757       31.86434       70.09846
O         50.95807       30.28471       68.65643
H         55.27470       28.67634       69.48056
H         53.19332       29.48705       67.60692
H         53.69301       30.46966       70.45891
H         52.80997       28.96710       70.02494
N         53.70073       32.07135       67.14686
C         54.16075       33.38430       66.71875
C         54.29645       34.43631       67.81481
O         54.72937       35.52737       67.47046
H         52.81626       31.71689       66.75457
H         53.46081       33.78121       65.95368
H         55.15050       33.26173       66.22654
N         53.99894       34.21331       69.13453
C         54.28927       35.21671       70.16810
C         54.50666       34.58202       71.54650
O         54.20265       35.20047       72.55834
C         53.19766       36.31283       70.17819
C         51.93833       35.87150       70.93352
N         50.84056       36.79866       70.69560
O         51.57833       34.55404       70.62714
H         53.63966       33.29453       69.41969
H         55.26156       35.68588       69.90106
H         52.95233       36.60432       69.13313
H         53.57189       37.21911       70.70081
H         51.10058       37.74012       71.06769
H         50.02201       36.46547       71.24017
N         55.03838       33.33379       71.65065
C         55.27169       32.64028       72.90438
C         54.00970       32.40188       73.71305
O         54.00868       32.70452       74.89726
H         55.30917       32.83161       70.79414
H         56.02086       33.19561       73.50975
H         55.70328       31.64506       72.66239
N         52.90272       31.84657       73.14238
C         51.69633       31.47956       73.88067
C         50.54471       32.39567       73.56099
O         50.16095       32.51495       72.40687
C         51.23649       30.04671       73.54038
C         52.03339       28.99057       74.25213
C         51.39869       28.21849       75.24146
C         53.38579       28.76025       73.96235
C         52.10327       27.24109       75.93758
C         54.09139       27.77283       74.66082
C         53.45053       27.01427       75.65428
O         54.11555       26.06948       76.34651
H         52.91362       31.68502       72.13006
H         51.86631       31.53896       74.97820
H         51.21396       29.87495       72.44115
H         50.18292       29.95041       73.89053
H         50.35511       28.37912       75.48598
H         53.89142       29.33733       73.19876
H         51.59839       26.66430       76.70210
H         55.13440       27.59946       74.43115
H         55.05443       25.89191       76.20271
N         49.89790       33.03026       74.57855
C         48.71014       33.83317       74.37519
C         49.14458       35.26481       74.27363
O         48.92062       35.85556       73.23157
C         47.65745       33.58742       75.50172
C         47.22538       32.10081       75.61679
C         46.42577       34.49488       75.32913
C         46.51076       31.53640       74.38532
H         50.26318       32.94839       75.54031
H         48.23383       33.57424       73.40625
H         48.12192       33.85385       76.47729
H         46.53926       31.99580       76.48645
H         48.11797       31.47288       75.82458
H         45.69790       34.32121       76.15038
H         46.72543       35.55692       75.37146
H         45.92522       34.32393       74.35424
H         47.16756       31.57484       73.49754
H         46.24121       30.47551       74.57066
H         45.57366       32.08940       74.17171
N         49.77095       35.89990       75.30350
C         50.15652       37.30336       75.21279
C         48.92445       38.11714       74.87116
O         48.93523       38.79873       73.85705
C         50.82087       37.77576       76.51694
O         51.96555       37.01110       76.79171
H         49.94810       35.37979       76.17653
H         50.90444       37.42419       74.39580
H         50.11943       37.67118       77.37086
H         51.09834       38.85162       76.44591
H         52.65451       37.27414       76.12626
N         47.80136       38.00571       75.64015
C         46.46843       38.53002       75.34379
C         46.22756       38.92580       73.88348
O         45.86663       40.06243       73.62118
C         46.15924       39.65937       76.33080
H         47.87422       37.44973       76.50723
H         45.74089       37.71043       75.53015
H         46.86769       40.50154       76.17675
H         45.11975       40.02354       76.19253
H         46.26591       39.29228       77.37429
N         46.40639       38.00933       72.87889
C         46.18158       38.32121       71.46390
C         45.33484       37.26189       70.77618
O         45.13966       36.19350       71.33444
C         47.52935       38.39362       70.74742
H         46.75202       37.07235       73.12587
H         45.67615       39.30393       71.36631
H         48.03193       37.40739       70.79694
H         47.39869       38.66761       69.67969
H         48.17854       39.15433       71.22890
N         44.81892       37.50089       69.52338
C         44.12939       36.49408       68.70680
C         42.89467       35.90319       69.37617
O         42.33048       34.96948       68.82057
C         45.14817       35.40977       68.29095
C         46.20280       36.01063       67.34137
C         47.42003       35.15553       67.29798
O         47.36941       33.97860       66.98276
O         48.56317       35.70532       67.73106
H         44.96238       38.42952       69.10273
H         43.77144       36.95942       67.76056
H         44.66596       34.56145       67.75586
H         45.62272       34.99809       69.20518
H         46.54006       36.99715       67.72570
H         45.77394       36.16662       66.32866
N         42.38016       36.40382       70.53573
C         41.21832       35.82504       71.16991
H         40.35108       35.85666       70.47740
H         41.43217       34.77325       71.45593
H         40.96639       36.39878       72.08688
H         42.79893       37.22713       70.98758
Ca        49.97540       34.64604       69.06543
O         50.86041       33.42094       66.60510
H         49.98017       33.56043       66.17700
H         51.22658       34.33349       66.72419
O         48.49130       30.65565       70.89719
H         48.37102       30.50128       71.86595
H         48.63927       29.75070       70.52559
O         47.88205       31.27865       68.01223
H         47.79853       30.32886       68.27609
H         47.08506       31.44290       67.44915
O         47.60473       33.88888       70.87316
H         46.66467       33.83622       71.17811
H         47.85871       34.83427       71.01929

Ca 1.0



