%chk=apoCaM-CA-Ng.loop2.water4.frame304.chk
%nprocshared=20
%mem=10GB
%nosave
#b3lyp/svp scf=(tight,noincore,xqc) Test 
#IOP(5/87=12) Density=Current Pop=(MK,readradii) iop(6/33=2) iop(6/42=6)

apoCaM-CA-Ng.loop2.water4.frame304 

   -2  1 
C         56.79298       59.87140       32.27630
C         55.68158       60.77768       32.72233
O         55.14333       60.55853       33.79789
H         57.61750       59.90258       33.01956
H         56.41713       58.83000       32.19501
H         57.19839       60.17917       31.28945
N         55.28710       61.82491       31.94321
C         54.23129       62.75781       32.31581
C         53.11811       62.69348       31.28600
O         53.37768       62.87450       30.10371
C         54.81625       64.17500       32.42447
C         53.78341       65.16152       32.89713
O         53.48742       66.12186       32.20498
O         53.18450       64.99233       34.09228
H         55.76472       61.97771       31.04117
H         53.81927       62.49741       33.31605
H         55.22970       64.49038       31.44112
H         55.64654       64.16850       33.16377
N         51.83838       62.43530       31.67854
C         50.71914       62.30623       30.74859
C         50.74725       60.98953       29.97322
O         49.81354       60.74578       29.22205
C         49.40097       62.38304       31.53159
H         51.64811       62.35434       32.68961
H         50.72298       63.16753       30.04369
H         49.34971       63.34340       32.08763
H         48.53292       62.34499       30.83842
H         49.32301       61.54194       32.25349
N         51.75853       60.08143       30.12039
C         51.79362       58.75896       29.51032
C         50.72456       57.89099       30.15692
O         49.88932       57.31621       29.47255
C         51.73264       58.85320       27.95887
C         52.16322       57.59541       27.25605
O         52.27462       57.58711       26.04110
O         52.53694       56.51950       27.96533
H         52.55600       60.29778       30.73089
H         52.77737       58.31307       29.78432
H         52.45735       59.63503       27.64296
H         50.72366       59.15141       27.60716
N         50.68365       57.80460       31.52027
C         49.66327       57.07824       32.25539
C         49.81404       55.58753       32.10287
O         48.90823       54.94558       31.59131
H         51.37594       58.33509       32.07171
H         48.65936       57.42479       31.92585
H         49.75866       57.30792       33.33933
N         50.94021       54.96908       32.55981
C         51.17887       53.53388       32.46005
C         51.39842       52.94837       33.84993
O         52.25458       53.42660       34.58156
C         52.40345       53.30327       31.57033
C         52.65449       51.83816       31.27354
N         52.71208       51.39546       29.99672
O         52.83326       51.04768       32.18727
H         51.67711       55.55089       32.98971
H         50.32017       53.02758       31.96621
H         53.28852       53.75368       32.06509
H         52.23912       53.84066       30.61096
H         52.58794       52.04240       29.20696
H         52.90136       50.40243       29.79601
N         50.65651       51.88756       34.26603
C         50.76732       51.27400       35.57921
C         52.11121       50.62296       35.85054
O         52.54241       49.79351       35.06162
H         49.95000       51.49737       33.62364
H         50.00920       50.46255       35.63625
H         50.51477       52.01779       36.36443
N         52.76435       50.86490       37.02735
C         53.92998       50.09075       37.46475
C         55.18682       50.34217       36.64065
O         56.04207       49.46992       36.61475
C         54.21412       50.25418       38.98395
C         54.60244       51.68138       39.40578
O         53.12005       49.79385       39.74112
H         52.33034       51.52971       37.68323
H         53.66702       49.01688       37.32680
H         55.07547       49.59931       39.24137
H         52.39771       50.47247       39.69716
H         54.81362       51.70138       40.49606
H         55.51355       52.00809       38.87308
H         53.79037       52.40723       39.19669
N         55.38487       51.51546       35.97716
C         56.52585       51.76293       35.08796
C         56.00065       52.15170       33.71829
O         54.79760       52.31806       33.60181
C         57.54964       52.78319       35.67616
C         57.06258       54.24155       35.92387
C         58.22706       52.19686       36.92688
C         56.09862       54.48882       37.09322
H         54.66285       52.23785       36.06162
H         57.08536       50.81496       34.93188
H         58.35567       52.87285       34.91439
H         56.62438       54.65499       34.99115
H         57.96948       54.84380       36.15537
H         59.02923       52.87353       37.28985
H         57.49976       52.03422       37.74420
H         58.69170       51.21654       36.68621
H         56.52281       54.12213       38.04993
H         55.93678       55.58195       37.19929
H         55.10227       54.05211       36.93877
N         56.81745       52.28066       32.62164
C         56.25675       52.56408       31.30052
C         56.58086       51.45543       30.30890
O         56.98630       51.74600       29.19581
C         56.71208       53.95299       30.80264
C         55.77303       54.43295       29.73367
O         54.61346       54.65375       30.03799
O         56.14039       54.62119       28.45453
H         57.83530       52.15391       32.71729
H         55.16084       52.58134       31.37967
H         57.76933       53.91017       30.46439
H         56.64881       54.69491       31.62843
N         56.43793       50.14649       30.65695
C         56.78257       49.03276       29.76924
C         58.23457       49.15599       29.29124
O         59.10546       49.25414       30.14493
C         56.59714       47.69867       30.53774
C         57.04093       46.48196       29.75391
C         56.39578       46.10732       28.56353
C         58.12092       45.70809       30.21767
C         56.83716       44.99254       27.84152
C         58.55502       44.59263       29.49694
C         57.91678       44.23720       28.30716
H         56.10578       49.93656       31.61135
H         56.08361       49.04620       28.91188
H         55.53211       47.57798       30.83294
H         57.19479       47.76206       31.47435
H         55.55585       46.67929       28.19154
H         58.63359       45.97019       31.13485
H         56.34331       44.71374       26.91980
H         59.38917       44.00614       29.86046
H         58.25815       43.37534       27.74825
N         58.59642       49.13343       27.96219
C         59.98657       49.16958       27.51133
C         60.68931       50.49323       27.75871
O         61.90421       50.55500       27.63551
C         59.88650       48.95073       25.99298
C         58.61660       48.13562       25.87035
C         57.70859       48.87087       26.84681
H         60.51134       48.32215       28.00635
H         59.66646       49.92231       25.48825
H         60.79479       48.51600       25.52468
H         58.21138       48.05755       24.83886
H         58.81334       47.11288       26.26561
H         57.38610       49.84429       26.41313
H         56.83055       48.24516       27.07026
N         59.96016       51.62290       27.96880
C         60.52579       52.96444       28.00093
C         61.03226       53.34180       29.38563
O         61.54454       54.44397       29.53014
C         59.46071       53.98108       27.52579
C         58.97615       53.68035       26.09305
C         57.92644       54.65756       25.65347
O         58.18199       55.84917       25.58968
O         56.69930       54.21947       25.31110
H         58.94048       51.53831       27.94774
H         61.37279       53.02675       27.28175
H         59.89073       55.00650       27.54593
H         58.59691       53.95153       28.22025
H         58.54091       52.66006       26.03592
H         59.83408       53.72991       25.38913
N         60.93153       52.49986       30.45420
C         61.40997       52.87306       31.76793
H         62.49793       53.09468       31.72776
H         60.86171       53.76845       32.13106
H         61.24327       52.04014       32.48362
H         60.50743       51.56817       30.35108
Ca        54.28233       55.24594       27.34781
O         55.00245       57.18944       25.18544
H         55.78493       56.83269       24.69687
H         55.23772       58.12992       25.38533
O         53.26660       54.40214       24.27928
H         53.75303       54.02267       23.50476
H         52.89009       55.25401       23.94295
O         54.68412       51.69740       26.78138
H         55.54229       51.78688       26.29579
H         54.81602       52.21295       27.61597
O         51.68936       53.34308       26.97855
H         51.24805       53.61815       27.82145
H         51.59165       52.35780       26.95544

Ca 1.0



