%chk=apoCaM-CA-Ng.loop1.water5.frame392.chk
%nprocshared=20
%mem=10GB
%nosave
#b3lyp/svp scf=(tight,noincore,xqc) Test 
#IOP(5/87=12) Density=Current Pop=(MK,readradii) iop(6/33=2) iop(6/42=6)

apoCaM-CA-Ng.loop1.water5.frame392 

   0  1 
C         -0.32088       64.90148       26.24366
C          0.75382       63.85510       26.28998
O          1.91891       64.20996       26.39345
H         -1.33143       64.44270       26.19778
H         -0.26324       65.52911       27.15741
H         -0.18221       65.54342       25.34904
N          0.43190       62.53553       26.19825
C          1.40976       61.45854       26.26237
C          1.55466       60.76996       24.90818
O          2.17837       59.72606       24.86745
C          1.00829       60.44947       27.36359
C          0.97704       61.06939       28.73570
O          1.80870       60.61934       29.69564
O          0.18933       61.96482       28.99533
H         -0.55665       62.27154       26.06280
H          2.41680       61.83320       26.54039
H          1.75973       59.63063       27.38873
H          0.01632       60.00261       27.13791
N          1.07738       61.31125       23.74713
C          1.21890       60.66781       22.43894
C          2.08234       61.49839       21.49353
O          1.86784       62.70222       21.44792
C         -0.16135       60.49066       21.78473
C         -1.03561       59.45674       22.50185
C         -2.29835       59.18859       21.66765
C         -3.20229       58.09598       22.25380
N         -3.78730       58.48892       23.53537
H          0.60425       62.22644       23.77304
H          1.65392       59.66687       22.54333
H         -0.00453       60.12557       20.75064
H         -0.68870       61.46746       21.71338
H         -1.28622       59.82605       23.51814
H         -0.47117       58.50248       22.59329
H         -1.97985       58.84059       20.65911
H         -2.87919       60.12794       21.54148
H         -2.62970       57.14846       22.36883
H         -4.02557       57.91110       21.52831
H         -3.04677       58.59451       24.26398
H         -4.31567       59.38527       23.42760
H         -4.45095       57.74303       23.84517
N          2.99972       60.97007       20.61116
C          3.37693       59.56100       20.43001
C          2.16041       58.67769       20.15343
O          1.83641       57.84297       20.98457
C          4.25325       59.05643       21.60873
C          5.56285       59.78991       21.75045
O          5.86521       60.70277       20.99902
O          6.42513       59.41827       22.71518
H          3.45658       61.63609       19.96829
H          4.03503       59.47132       19.53758
H          4.50484       57.98876       21.42710
H          3.72398       59.12728       22.57402
N          1.39775       58.77955       19.02776
C          1.72869       59.61892       17.88537
C          0.60019       59.67227       16.85784
O         -0.48945       59.19483       17.13213
H          0.56082       58.18052       18.98000
H          2.65498       59.21584       17.42588
H          1.90548       60.66255       18.21603
N          0.75075       60.29779       15.65171
C          2.02529       60.79908       15.15384
C          2.92703       59.66980       14.64603
O          4.09758       59.91806       14.40864
C          1.81049       61.84918       14.03604
C          1.13404       61.34416       12.77961
O          0.74895       60.06013       12.64540
O          0.93044       62.12104       11.86097
H         -0.08808       60.38929       15.05638
H          2.53304       61.33568       15.98570
H          2.79738       62.27146       13.74862
H          1.19319       62.67609       14.45006
N          2.41699       58.42765       14.37965
C          3.17922       57.32588       13.80806
C          2.99425       56.10411       14.66492
O          1.85417       55.73824       14.91381
H          1.41390       58.25511       14.52760
H          4.25433       57.57724       13.68576
H          2.76179       57.10085       12.80413
N          4.06085       55.41873       15.17033
C          3.86904       54.32791       16.12396
C          3.17614       54.88484       17.35428
O          3.41539       56.03872       17.68960
C          5.18256       53.58029       16.46785
C          6.27517       54.45315       17.09655
O          5.68515       52.98912       15.29545
H          5.01119       55.70804       14.90119
H          3.20162       53.56716       15.65854
H          4.91148       52.78392       17.20355
H          6.08131       52.11446       15.55038
H          5.91675       54.92167       18.03460
H          7.15471       53.81830       17.33881
H          6.61478       55.24418       16.39756
N          2.25573       54.14696       18.03914
C          1.45425       54.70968       19.12309
C          1.99049       54.15319       20.43387
O          1.26975       53.52627       21.19740
C         -0.06812       54.44732       18.85863
C         -0.45921       54.83256       17.40069
C         -0.93843       55.22010       19.87338
C         -1.90631       54.48973       17.03059
H          2.10778       53.15960       17.77764
H          1.59873       55.80988       19.16705
H         -0.25290       53.35559       18.97187
H          0.17313       54.25881       16.69010
H         -0.28037       55.91533       17.22404
H         -0.68182       54.96465       20.91875
H         -0.80693       56.31468       19.74116
H         -2.01198       54.97555       19.74867
H         -2.63256       55.08574       17.61766
H         -2.07757       54.72087       15.95743
H         -2.10018       53.40706       17.18918
N          3.31474       54.32155       20.71579
C          3.97683       53.73512       21.87729
C          3.75093       54.51339       23.16695
O          4.11223       54.00067       24.21672
C          5.50080       53.57872       21.61421
C          6.23886       54.91603       21.42359
O          5.70604       52.79130       20.46985
H          3.88782       54.79234       20.00453
H          3.56733       52.70911       22.01373
H          5.97181       53.07949       22.49302
H          5.51442       51.85227       20.72879
H          6.12818       55.56329       22.31438
H          7.32129       54.72306       21.27219
H          5.87571       55.47805       20.54014
N          3.22577       55.77335       23.16434
C          3.04071       56.61212       24.35083
C          4.38561       56.93876       25.01912
O          5.40456       56.40766       24.60234
C          1.99505       55.97540       25.31410
C          0.66622       55.68331       24.59231
O          1.75358       56.79156       26.43307
H          2.96056       56.18684       22.26493
H          2.61959       57.56951       23.99495
H          2.38353       55.00941       25.69515
H          1.21635       57.57156       26.13520
H         -0.05654       55.23072       25.30321
H          0.22690       56.62130       24.18870
H          0.81689       54.97396       23.75247
N          4.46990       57.83674       26.04666
C          5.71760       58.16158       26.73922
C          6.13082       59.62600       26.53686
O          7.20318       59.99868       26.99141
C          5.54792       57.71665       28.20655
C          6.80220       57.87456       29.08405
C          6.67083       57.14586       30.43646
C          6.73045       55.61019       30.28698
N          6.64523       54.94528       31.58603
H          3.61640       58.30418       26.37823
H          6.55403       57.56211       26.31760
H          5.28284       56.64308       28.14419
H          4.69588       58.24842       28.68520
H          6.95102       58.95806       29.27788
H          7.70280       57.48383       28.56283
H          5.73265       57.45743       30.94608
H          7.52850       57.45071       31.07450
H          7.69330       55.33349       29.80126
H          5.90485       55.23269       29.65066
H          5.72127       55.14982       32.03100
H          6.72973       53.91212       31.44449
H          7.42081       55.26446       32.21028
N          5.38115       60.48724       25.78709
C          5.81697       61.82590       25.39562
C          6.02379       62.72777       26.59932
O          5.09045       62.92370       27.36672
C          4.75802       62.45666       24.45452
C          5.18398       63.75762       23.75684
C          6.16798       63.50013       22.64923
O          7.28613       63.07184       22.88340
O          5.78564       63.71137       21.37466
H          4.49200       60.15627       25.40207
H          6.76522       61.70835       24.83344
H          3.85001       62.66852       25.04993
H          4.46709       61.73413       23.66032
H          5.57012       64.50774       24.47953
H          4.27077       64.18194       23.28526
N          7.22038       63.34375       26.80487
C          7.43595       64.25623       27.90783
H          8.47018       64.66026       27.87047
H          6.72488       65.10803       27.83890
H          7.29081       63.73039       28.87475
H          7.99748       63.18259       26.14657
Ca         7.07881       63.13079       19.61674
O          8.73207       60.42129       19.35311
H          8.48155       59.97172       20.19895
H          8.72905       59.69779       18.67720
O          5.80114       60.71416       17.70668
H          5.94803       59.73943       17.80091
H          6.09510       60.92132       16.78425
O          9.06565       64.26775       17.70184
H          9.69408       64.76680       18.28179
H          8.99604       64.81464       16.87973
O          6.32257       66.12064       19.25743
H          5.91267       66.10765       20.15854
H          7.23585       66.47277       19.40647
O          9.89003       63.48210       20.97105
H         10.46498       63.62298       21.76431
H          9.15563       64.13685       21.08107

Ca 1.0



