%chk=apoCaM-CA-Ng.loop4.water4.frame357.chk
%nprocshared=20
%mem=10GB
%nosave
#b3lyp/svp scf=(tight,noincore,xqc) Test 
#IOP(5/87=12) Density=Current Pop=(MK,readradii) iop(6/33=2) iop(6/42=6)

apoCaM-CA-Ng.loop4.water4.frame357 

   -3  1 
C         95.79011       88.86756       32.83367
C         97.22258       88.43759       32.76298
O         98.00832       88.93564       33.55340
H         95.16481       88.32222       32.09806
H         95.40245       88.65481       33.85396
H         95.71651       89.95778       32.64142
N         97.63021       87.47928       31.87684
C         98.98505       86.93862       31.84118
C         99.33204       86.34234       33.18290
O        100.25131       86.80418       33.82506
C        100.03061       87.90063       31.19783
C        100.01242       89.38519       31.50786
O        100.33999       89.93108       32.69865
O         99.73492       90.15199       30.59847
H         96.93043       87.05186       31.25205
H         99.00325       86.05929       31.15664
H         99.82023       87.84020       30.10513
H        101.05517       87.48947       31.33049
N         98.59421       85.28366       33.63949
C         98.75477       84.54106       34.89283
C        100.03376       83.70233       34.89356
O         99.92031       82.48434       34.86037
C         98.55568       85.43969       36.14648
C         98.54225       84.63430       37.47727
C         97.26124       86.26503       36.01480
C         97.41038       83.60348       37.61072
H         97.81895       84.96666       33.03600
H         97.91680       83.80959       34.90151
H         99.39750       86.15950       36.20981
H         98.44510       85.35345       38.32077
H         99.51026       84.10610       37.60285
H         96.37258       85.61618       35.87583
H         97.10895       86.88901       36.91366
H         97.31804       86.94624       35.14538
H         97.47159       83.11580       38.60583
H         96.41235       84.08213       37.53712
H         97.49336       82.80799       36.84311
N        101.27731       84.26084       34.88335
C        102.49844       83.48162       34.74506
C        102.76051       82.63652       35.99147
O        102.83941       81.42659       35.83336
C        103.68854       84.38410       34.31847
C        103.49084       85.02325       32.95953
O        104.46004       85.80834       32.45241
O        102.47428       84.83743       32.30712
H        101.38050       85.27472       34.93232
H        102.37597       82.78032       33.88657
H        104.60822       83.76452       34.25913
H        103.86227       85.20610       35.03178
N        102.88780       83.12940       37.26201
C        102.81232       84.54074       37.60724
C        102.97978       84.82612       39.09132
O        103.07412       83.88581       39.86707
H        103.05073       82.43892       38.01006
H        101.83087       84.93821       37.29156
H        103.63637       85.03014       37.09547
N        103.03061       86.09377       39.61164
C        102.97113       87.36641       38.89052
C        101.65504       87.53055       38.14688
O        101.64495       87.36148       36.93619
C        104.20097       87.61014       37.97638
C        105.49112       87.32153       38.69086
O        106.25414       86.47364       38.25492
O        105.80842       87.98577       39.81795
H        103.13604       86.17088       40.63600
H        103.04333       88.18319       39.64108
H        104.19702       88.67100       37.64359
H        104.16456       87.01399       37.05012
N        100.49307       87.91603       38.74822
C        100.33775       88.32576       40.13231
C        100.32128       87.19238       41.11927
O        100.46134       86.03604       40.74779
H         99.66522       88.02221       38.14859
H         99.34271       88.81045       40.23256
H        101.09744       89.08986       40.39846
N        100.06522       87.48489       42.42462
C         99.91925       86.48473       43.47152
C         98.45770       86.33119       43.88836
O         98.18089       85.43622       44.67425
C        100.92703       86.74356       44.62276
C        100.95065       88.15684       45.23877
C         99.71095       88.52320       45.99719
N         99.35196       87.83372       47.10272
O         99.04834       89.48275       45.63831
H         99.89835       88.47230       42.67165
H        100.17906       85.47999       43.06976
H        101.94093       86.59218       44.19145
H        100.79671       85.97755       45.41757
H        101.15135       88.90756       44.44622
H        101.80056       88.21754       45.95239
H         99.91294       87.03720       47.43645
H         98.52624       88.11660       47.64444
N         97.45887       87.08024       43.32033
C         96.03421       86.77524       43.46849
C         95.24879       87.87258       44.17580
O         94.04842       87.69383       44.33857
C         95.40805       86.44811       42.07591
C         96.07774       85.21946       41.44021
C         95.45448       87.63282       41.09273
H         97.70147       87.85274       42.68845
H         95.89989       85.86903       44.09977
H         94.33767       86.18805       42.23594
H         97.15168       85.41159       41.23026
H         95.99570       84.34390       42.11889
H         95.57461       84.95984       40.48368
H         94.94737       88.52143       41.52291
H         96.49603       87.90603       40.82633
H         94.92873       87.36297       40.15195
N         95.84215       88.99141       44.68219
C         95.12039       89.98546       45.47252
C         95.29039       91.40853       44.95440
O         94.75119       92.30072       45.59377
C         95.60049       89.89369       46.93717
C         95.25013       88.55921       47.55607
N         93.95840       88.18350       47.70837
O         96.13780       87.81517       47.93881
H         96.85814       89.10947       44.58279
H         94.02641       89.78918       45.46552
H         95.11439       90.67823       47.55604
H         96.69954       90.06264       46.97068
H         93.18788       88.79903       47.41173
H         93.72662       87.27524       48.13754
N         95.97248       91.71837       43.80911
C         96.11366       93.10546       43.35450
C         96.60395       93.21567       41.92406
O         97.37812       92.37895       41.48956
C         97.00495       93.94124       44.31414
C         98.36169       93.32447       44.62440
C         99.35022       93.14470       43.63739
C         98.65352       92.93134       45.94436
C        100.58157       92.56420       43.95702
C         99.88961       92.36189       46.26411
C        100.85457       92.16890       45.27244
O        102.03674       91.60608       45.59490
H         96.36207       90.95912       43.23330
H         95.09657       93.55741       43.33720
H         96.44791       94.05859       45.26604
H         97.14043       94.96812       43.91081
H         99.18896       93.45183       42.61891
H         97.92310       93.06298       46.73261
H        101.32407       92.42564       43.18070
H        100.09464       92.06439       47.28468
H        102.72778       91.44607       44.93632
N         96.22141       94.29998       41.17270
C         96.63426       94.61497       39.80346
C         95.96074       93.75440       38.73727
O         95.40225       94.32929       37.81174
C         98.16661       94.69794       39.64419
C         98.75256       95.78414       40.56528
C        100.22454       95.96368       40.33638
O        100.65950       97.04323       39.96665
O        101.07432       94.94145       40.54914
H         95.61814       95.00206       41.62758
H         96.27387       95.64749       39.58231
H         98.38875       94.98578       38.59199
H         98.64978       93.71737       39.83488
H         98.58266       95.52203       41.62984
H         98.23798       96.75050       40.36346
N         95.96020       92.39291       38.77484
C         95.38614       91.55828       37.72439
C         93.88215       91.73561       37.54678
O         93.34716       91.15587       36.61058
C         95.68264       90.05869       37.98794
C         97.16233       89.70336       38.23745
C         98.06707       90.18637       37.14245
O         98.27673       91.50452       36.97335
O         98.64546       89.39061       36.42463
H         96.41514       91.92284       39.54988
H         95.86524       91.84927       36.76529
H         95.33232       89.47371       37.10853
H         95.10574       89.71866       38.87611
H         97.22498       88.60128       38.33422
H         97.53056       90.11220       39.19969
N         93.12511       92.50193       38.38300
C         91.70302       92.66993       38.18048
H         91.19305       91.68529       38.24001
H         91.28535       93.33822       38.96278
H         91.51389       93.12699       37.18538
H         93.54751       92.98124       39.18909
Ca       100.94780       89.18755       34.73992
O         99.61776       92.21337       34.28826
H         99.25994       92.45211       33.39661
H         99.14745       92.81936       34.91275
O        103.54158       88.04807       34.21779
H        104.24372       88.70157       33.97542
H        102.96385       87.99819       33.41461
O        101.81821       91.61357       37.03321
H        100.84194       91.75975       37.09165
H        102.19156       92.51900       36.88867
O        102.82772       91.46178       34.02937
H        103.77180       91.22692       33.84736
H        102.86824       92.36987       34.42111

Ca 1.0



