%chk=apoCaM-CA-Ng.loop3.water4.frame114.chk
%nprocshared=20
%mem=10GB
%nosave
#b3lyp/svp scf=(tight,noincore,xqc) Test 
#IOP(5/87=12) Density=Current Pop=(MK,readradii) iop(6/33=2) iop(6/42=6)

apoCaM-CA-Ng.loop3.water4.frame114 

   0  1 
C         46.95104       92.72965      105.08109
C         48.07874       93.71315      105.15665
O         47.85387       94.89002      104.91539
H         46.00319       93.23896      104.80141
H         47.18150       91.96304      104.31174
H         46.81627       92.23526      106.06532
N         49.33636       93.29000      105.48398
C         50.50924       94.15942      105.56197
C         50.90951       94.73749      104.20740
O         51.79691       95.57676      104.18613
C         50.30493       95.29596      106.59551
C         49.93908       94.76846      107.95275
O         48.77806       95.13763      108.52680
O         50.69481       94.01636      108.54680
H         49.47284       92.29011      105.69928
H         51.37612       93.55529      105.91273
H         49.52042       96.00165      106.25425
H         51.24630       95.87943      106.69430
N         50.33207       94.32309      103.03664
C         50.65363       94.91789      101.74063
C         49.41457       95.55250      101.10020
O         49.56164       96.22986      100.09026
C         51.32563       93.83953      100.85973
C         51.94617       94.39960       99.56996
C         52.78267       93.33860       98.84057
C         53.47082       93.94605       97.60935
N         54.31556       92.96127       96.93465
H         49.65881       93.54631      103.04928
H         51.38784       95.73863      101.88536
H         50.60888       93.02078      100.62682
H         52.15649       93.40694      101.46083
H         52.61885       95.24170       99.84310
H         51.15503       94.77315       98.88756
H         52.13374       92.48983       98.53151
H         53.56621       92.95457       99.53075
H         54.10424       94.80416       97.92841
H         52.70163       94.32288       96.89943
H         55.05892       92.61864       97.58620
H         53.73727       92.15626       96.60197
H         54.77462       93.41386       96.11115
N         48.16269       95.39213      101.62479
C         46.96127       95.99917      101.05678
C         46.97347       97.50619      101.30717
O         47.78428       97.97450      102.09607
C         45.72713       95.30125      101.69515
C         44.38992       95.56894      101.05684
O         43.77759       94.65387      100.52972
O         43.82003       96.78150      101.11898
H         48.03436       94.78060      102.43820
H         46.96017       95.78051       99.96580
H         45.67681       95.53815      102.78058
H         45.89919       94.20514      101.60495
N         46.10978       98.33526      100.65839
C         46.05277       99.76584      100.90397
C         45.60715      100.07091      102.31785
O         46.34841      100.72718      103.03610
H         45.48540       97.94978       99.93713
H         45.32460      100.22970      100.20623
H         47.04902      100.21746      100.69875
N         44.39345       99.63811      102.77562
C         43.87924       99.94205      104.11412
C         43.66094       98.70295      104.98323
O         43.37225       98.87200      106.16006
C         42.56903      100.75611      104.01872
C         41.40946       99.96571      103.44409
N         40.31729       99.69988      104.19843
O         41.45152       99.56480      102.29144
H         43.81025       99.08927      102.13159
H         44.62072      100.57314      104.65137
H         42.73457      101.66764      103.40438
H         42.30363      101.09496      105.04376
H         40.25420      100.02424      105.17419
H         39.53227       99.15785      103.80759
N         43.77669       97.43645      104.49157
C         43.62892       96.23421      105.29955
C         42.25474       96.03849      105.91942
O         41.36774       96.86624      105.76590
H         44.02138       97.29894      103.50604
H         44.38876       96.25082      106.11049
H         43.83373       95.35068      104.65653
N         42.04249       94.92164      106.67324
C         40.80391       94.61889      107.39985
C         39.63280       94.34823      106.46786
O         39.81843       94.33571      105.25923
C         41.01499       93.35535      108.27150
C         42.18449       93.49643      109.21378
C         43.30398       92.65845      109.07302
C         42.17298       94.46282      110.23213
C         44.39685       92.78964      109.93186
C         43.26676       94.58951      111.09397
C         44.38366       93.75330      110.94461
O         45.44676       93.86594      111.76552
H         42.83856       94.27233      106.76823
H         40.55906       95.48225      108.05635
H         41.18581       92.49327      107.58738
H         40.11073       93.12716      108.87388
H         43.33598       91.90811      108.29239
H         41.31861       95.11575      110.35943
H         45.25505       92.14127      109.80769
H         43.24543       95.33801      111.87564
H         45.47845       94.51854      112.47918
N         38.38975       94.08579      106.98160
C         37.24206       93.72519      106.15576
C         36.19255       94.82051      106.28184
O         35.91474       95.47373      105.28865
C         36.66275       92.32830      106.56000
C         37.74069       91.23789      106.80260
C         35.62875       91.83324      105.52758
C         38.58490       90.85872      105.58572
H         38.25152       94.13278      108.00213
H         37.55940       93.65939      105.09087
H         36.14804       92.43798      107.53888
H         37.23632       90.31680      107.17085
H         38.42216       91.57447      107.61231
H         34.81492       92.55919      105.37744
H         36.09461       91.67983      104.53317
H         35.17587       90.87607      105.86415
H         39.32125       90.08378      105.88721
H         37.95714       90.42806      104.78003
H         39.13858       91.73522      105.19789
N         35.59336       95.10393      107.48198
C         34.60900       96.17789      107.64887
C         33.30540       95.93842      106.89243
O         32.52898       96.87530      106.76882
C         34.29049       96.40584      109.13301
O         33.68937       95.26015      109.67596
H         35.88423       94.56926      108.31384
H         35.07438       97.10897      107.25427
H         33.60621       97.28226      109.21984
H         35.22938       96.63014      109.68402
H         33.19684       95.55569      110.48479
N         33.00853       94.72671      106.34102
C         31.86895       94.46752      105.46822
C         31.91585       95.42201      104.28756
O         30.91848       96.04877      103.95505
C         30.54134       94.51575      106.23802
H         33.65614       93.94783      106.49021
H         31.98214       93.43327      105.07164
H         29.69946       94.24935      105.56315
H         30.56286       93.78152      107.07115
H         30.35272       95.52533      106.65741
N         33.10865       95.63675      103.66653
C         33.31086       96.60551      102.60065
C         34.19579       96.02037      101.52242
O         34.79082       94.97152      101.73972
C         33.96853       97.85752      103.18442
H         33.93342       95.14505      104.03174
H         32.33158       96.88833      102.15678
H         34.12406       98.62577      102.39887
H         33.31492       98.28773      103.97381
H         34.94939       97.60446      103.64295
N         34.30017       96.62725      100.30183
C         35.12561       96.09551       99.21872
C         34.74063       94.65967       98.85303
O         35.49069       94.02345       98.12565
C         36.62758       96.23174       99.57651
C         37.02480       97.71300       99.70454
C         38.48307       97.86224      100.01492
O         39.22069       98.45069       99.23992
O         38.97943       97.36539      101.16251
H         33.75558       97.48424      100.12191
H         34.97603       96.70378       98.29946
H         37.24070       95.79344       98.75798
H         36.86712       95.68361      100.51245
H         36.44312       98.20554      100.51203
H         36.80189       98.23006       98.74409
N         33.57192       94.09514       99.28655
C         33.18603       92.72801       99.01032
H         32.24063       92.72319       98.42951
H         33.96136       92.17332       98.44353
H         33.01552       92.20170       99.97389
H         32.89691       94.64632       99.83346
Ca        41.77618       97.12004      100.24321
O         42.22374       99.87997       99.20980
H         42.96344      100.21067       99.77779
H         42.67141       99.51708       98.40482
O         42.70566       96.10069       97.58110
H         43.63811       95.79445       97.71114
H         42.78314       97.07789       97.44125
O         40.33066       94.46505       99.80958
H         39.69433       94.27813       99.07472
H         40.05010       93.86032      100.54140
O         41.06837       95.83790      102.90651
H         40.58514       94.99258      102.72988
H         40.37908       96.44312      103.27911

Ca 1.0



