%chk=apoCaM-CA-Ng.loop2.water5.frame740.chk
%nprocshared=20
%mem=10GB
%nosave
#b3lyp/svp scf=(tight,noincore,xqc) Test 
#IOP(5/87=12) Density=Current Pop=(MK,readradii) iop(6/33=2) iop(6/42=6)

apoCaM-CA-Ng.loop2.water5.frame740 

   -2  1 
C         87.98632       26.05215       80.97382
C         88.21061       25.93463       79.49627
O         87.34942       25.41091       78.80377
H         86.99076       25.64495       81.25327
H         88.76899       25.47581       81.51010
H         88.03730       27.11691       81.28313
N         89.35777       26.41627       78.94074
C         89.66619       26.31010       77.52112
C         89.65710       27.69724       76.90628
O         90.66392       28.14561       76.37405
C         91.01000       25.56430       77.36173
C         91.37042       25.32425       75.92154
O         90.63459       24.66526       75.20440
O         92.51592       25.82449       75.41992
H         90.04410       26.88537       79.55316
H         88.88517       25.72158       76.99204
H         90.93878       24.57644       77.86624
H         91.81900       26.14538       77.85820
N         88.51212       28.43705       76.95704
C         88.38626       29.77524       76.39119
C         88.19182       30.78888       77.51369
O         87.96371       30.36980       78.64086
C         87.21930       29.76615       75.39171
H         87.68886       28.03691       77.43436
H         89.32592       30.04388       75.86353
H         87.42697       29.02309       74.59128
H         86.27824       29.47229       75.90399
H         87.04806       30.74601       74.90888
N         88.36066       32.13650       77.35453
C         88.70915       32.81596       76.10893
C         90.14900       33.29471       76.13317
O         90.81327       33.20944       77.15740
C         87.72374       33.98109       75.80797
C         87.68070       35.05321       76.87986
O         87.19901       34.76254       78.10690
O         88.05631       36.18737       76.63031
H         88.31066       32.70428       78.21108
H         88.67003       32.11219       75.26075
H         86.69708       33.57931       75.67480
H         88.01775       34.44925       74.84319
N         90.70651       33.77554       74.98610
C         92.07557       34.24166       74.88022
C         93.06980       33.12546       75.13374
O         92.93785       32.09701       74.48557
H         90.13114       33.81431       74.13113
H         92.19308       35.10081       75.55542
H         92.24181       34.59811       73.84067
N         94.10029       33.20261       76.03006
C         94.47426       34.37828       76.81355
C         95.23315       33.94710       78.05962
O         96.27998       33.32107       77.95559
C         95.38503       35.33505       76.00641
C         94.67357       36.07590       74.90505
N         95.01572       35.89612       73.60919
O         93.79181       36.87285       75.19062
H         94.69077       32.36079       76.13098
H         93.57154       34.91700       77.16175
H         96.24269       34.75383       75.60253
H         95.79664       36.11510       76.68522
H         95.76190       35.23762       73.34474
H         94.52635       36.41638       72.86573
N         94.75922       34.30073       79.28394
C         95.46923       33.99169       80.51795
C         94.85025       34.54753       81.79841
O         95.48887       34.38584       82.82925
H         93.89162       34.83649       79.28730
H         96.48710       34.43359       80.44006
H         95.57229       32.89000       80.62180
N         93.65768       35.21757       81.84321
C         93.11095       35.82496       83.04827
C         91.75377       35.24163       83.36548
O         91.22399       34.46230       82.58476
C         92.94867       37.35116       82.81356
C         94.29477       38.03716       82.58386
O         92.11878       37.56733       81.69688
H         93.08119       35.34439       81.00811
H         93.77308       35.64788       83.92384
H         92.48669       37.80734       83.71951
H         91.67223       38.44478       81.81922
H         94.94256       37.90427       83.47528
H         94.80688       37.61968       81.69140
H         94.13376       39.12411       82.42093
N         91.11804       35.61508       84.50698
C         89.73076       35.28808       84.79408
C         88.94536       36.57009       85.02179
O         89.51406       37.65485       85.04356
C         89.60180       34.27504       85.97083
C         90.10755       32.88506       85.51150
C         90.31433       34.76717       87.24376
C         89.80263       31.76369       86.50630
H         91.62424       36.21130       85.18073
H         89.25434       34.81711       83.90518
H         88.52241       34.15294       86.20394
H         91.19768       32.91587       85.29945
H         89.58214       32.61497       84.56853
H         89.92707       35.76286       87.54400
H         90.13744       34.07457       88.09090
H         91.41036       34.83992       87.08029
H         90.12347       30.79281       86.07299
H         90.34510       31.90969       87.46090
H         88.71000       31.71148       86.70476
N         87.59883       36.49823       85.16319
C         86.71533       37.65367       85.28050
C         85.29685       37.26855       85.72626
O         84.40624       38.09346       85.57860
C         86.72547       38.45110       83.94250
C         86.41236       37.60625       82.73015
O         87.35004       37.45990       81.76770
O         85.33385       37.04574       82.62058
H         87.19625       35.56103       85.10986
H         87.08162       38.33332       86.08135
H         87.73826       38.88121       83.79429
H         86.02476       39.31154       83.99725
N         85.01153       36.06744       86.32801
C         83.67241       35.69233       86.76030
C         83.60720       34.18792       87.01202
O         84.34969       33.69929       87.85315
C         83.24432       36.48110       88.02622
C         81.80796       36.18214       88.42608
C         80.81407       37.16201       88.25559
C         81.43718       34.93084       88.96243
C         79.48291       36.88773       88.58709
C         80.10688       34.66102       89.28936
C         79.12898       35.63680       89.09774
H         85.75208       35.37828       86.49607
H         82.97140       35.96840       85.95025
H         83.33437       37.56296       87.79517
H         83.92324       36.27615       88.88284
H         81.06439       38.13462       87.85175
H         82.16700       34.15456       89.13475
H         78.72347       37.64441       88.44236
H         79.83556       33.69250       89.69045
H         78.09801       35.42384       89.34836
N         82.69673       33.39310       86.36759
C         82.45126       31.99795       86.70592
C         83.44337       31.02395       86.08701
O         83.19776       29.82970       86.19722
C         81.03005       31.77761       86.16616
C         81.03360       32.61773       84.90983
C         81.72863       33.87865       85.40003
H         82.41828       31.82775       87.80476
H         80.72331       30.71790       86.03844
H         80.31210       32.25915       86.87103
H         81.69248       32.11126       84.16868
H         80.04127       32.79807       84.44495
H         82.19001       34.40211       84.53571
H         81.01637       34.55318       85.92644
N         84.57337       31.42210       85.42933
C         85.46363       30.45353       84.78883
C         86.12968       29.51299       85.78991
O         86.73892       28.54934       85.34523
C         86.55597       31.11635       83.91021
C         86.00192       31.90046       82.70705
C         85.38380       33.20898       83.09267
O         84.07597       33.43589       82.87490
O         86.06658       34.07483       83.60996
H         84.78313       32.42329       85.36269
H         84.83761       29.82974       84.11120
H         87.16658       30.29399       83.47531
H         87.23622       31.75181       84.51809
H         85.26831       31.26758       82.16370
H         86.83404       32.12184       82.00792
N         86.06466       29.71290       87.13951
C         86.65056       28.80517       88.10570
H         87.41242       29.34443       88.70523
H         85.85380       28.43311       88.78375
H         87.13379       27.92656       87.62876
H         85.58678       30.54053       87.52099
Ca        87.15405       36.09831       79.95416
O         84.39490       36.62406       78.65040
H         83.96790       35.77431       78.37515
H         83.64946       37.27367       78.69241
O         88.85865       33.91884       80.97916
H         88.15860       33.98665       81.67416
H         89.27836       34.81433       80.98033
O         86.76079       38.84171       78.61684
H         87.52522       38.57003       78.04944
H         87.13237       39.53552       79.21740
O         89.88027       37.22621       79.18977
H         90.26602       36.70874       78.43930
H         90.20099       36.75961       80.00105
O         85.04859       34.07690       80.17923
H         85.02851       33.10395       80.00050
H         84.12504       34.30187       80.45620

Ca 1.0



