%chk=apoCaM-CA-Ng.loop1.water3.frame996.chk
%nprocshared=20
%mem=10GB
%nosave
#b3lyp/svp scf=(tight,noincore,xqc) Test 
#IOP(5/87=12) Density=Current Pop=(MK,readradii) iop(6/33=2) iop(6/42=6)

apoCaM-CA-Ng.loop1.water3.frame996 

   0  1 
C         62.53750       71.54408       46.07336
C         61.23662       71.52505       46.82906
O         60.25210       71.02933       46.30201
H         63.35719       71.98846       46.67904
H         62.82887       70.50559       45.81186
H         62.42787       72.14045       45.14437
N         61.16686       72.05934       48.07842
C         59.95933       72.07548       48.90355
C         59.52910       73.50957       49.15547
O         60.30777       74.28571       49.68751
C         60.14538       71.29956       50.23730
C         61.22158       71.81469       51.16442
O         61.19125       71.52289       52.34941
O         62.30679       72.42789       50.65938
H         62.02170       72.50042       48.43568
H         59.13143       71.55714       48.37362
H         60.33168       70.22311       50.03967
H         59.17487       71.36492       50.77941
N         58.29509       73.93782       48.76597
C         57.84795       75.31526       48.92895
C         57.69339       75.69992       50.39432
O         56.95242       75.05013       51.11835
C         56.52406       75.55221       48.17059
C         56.12870       77.04031       48.20301
C         54.96395       77.34827       47.25869
C         54.65258       78.85262       47.26847
N         53.61711       79.18250       46.29104
H         57.66889       73.26963       48.29080
H         58.59862       75.97268       48.43494
H         55.70296       74.92388       48.58196
H         56.69256       75.25809       47.11103
H         57.00076       77.64534       47.87040
H         55.86418       77.34099       49.24089
H         54.06156       76.77127       47.55721
H         55.25599       77.04971       46.22792
H         55.57437       79.42432       47.01724
H         54.31921       79.15893       48.28525
H         53.43559       80.21188       46.32147
H         53.94184       78.92833       45.32938
H         52.73272       78.67132       46.51315
N         58.30864       76.82502       50.85636
C         58.11778       77.37852       52.20171
C         58.67126       78.80547       52.28754
O         59.48111       79.18348       51.45237
C         58.72348       76.46041       53.29781
C         60.17211       76.14196       53.06719
O         60.50485       75.49511       52.09129
O         61.10628       76.52588       53.95719
H         58.87137       77.35145       50.17333
H         57.02146       77.47685       52.35732
H         58.16429       75.50358       53.34534
H         58.63908       76.93281       54.29356
N         58.24555       79.71556       53.21274
C         57.25228       79.49409       54.24966
C         55.86471       79.89621       53.82367
O         55.63459       80.20555       52.66303
H         58.62634       80.67124       53.15183
H         57.54925       80.09817       55.13348
H         57.20121       78.44443       54.57675
N         54.86745       79.87777       54.75169
C         53.46976       80.17175       54.44597
C         53.23722       81.61431       54.00197
O         52.12083       81.90358       53.59049
C         52.58203       79.88974       55.68477
C         52.64320       78.46719       56.18729
O         53.31933       77.61950       55.62476
O         51.93633       78.12630       57.28136
H         55.11672       79.59643       55.71282
H         53.15105       79.49574       53.62065
H         51.51953       80.10921       55.44335
H         52.89902       80.56445       56.51053
N         54.20610       82.57692       54.07453
C         53.98774       83.96189       53.68000
C         54.91881       84.42763       52.57407
O         54.80984       85.58444       52.19756
H         55.13200       82.34519       54.46026
H         54.14155       84.60706       54.57144
H         52.94520       84.12352       53.32846
N         55.83912       83.59909       51.99164
C         56.71957       84.00337       50.89676
C         58.16145       83.80009       51.31382
O         58.50979       82.69159       51.68917
C         56.44038       83.15552       49.64062
C         54.97134       83.22436       49.21767
O         57.25076       83.63009       48.59488
H         55.91500       82.62732       52.31047
H         56.55097       85.07034       50.63040
H         56.68829       82.09089       49.86761
H         57.36524       82.88373       47.95207
H         54.31898       82.80879       50.01527
H         54.67194       84.27305       49.01043
H         54.82116       82.61405       48.30246
N         59.05112       84.83226       51.29253
C         60.42106       84.70042       51.79046
C         60.51379       85.34773       53.16374
O         61.41276       85.00289       53.92114
C         61.44355       85.30096       50.77898
C         61.25850       84.75511       49.33874
C         62.90230       85.12182       51.24514
C         61.46041       83.24647       49.18377
H         58.72641       85.75632       50.97167
H         60.65346       83.62526       51.94853
H         61.25259       86.39618       50.71722
H         61.97475       85.27572       48.66536
H         60.23709       85.00690       48.98103
H         63.08150       85.63830       52.20920
H         63.15634       84.04915       51.37180
H         63.59896       85.57283       50.50689
H         62.48974       82.94850       49.46794
H         60.72704       82.68337       49.79543
H         61.30622       82.96904       48.11966
N         59.59654       86.27069       53.56649
C         59.57024       86.88626       54.87814
C         59.86108       88.36512       54.75226
O         60.06442       88.85602       53.64606
C         58.21383       86.58398       55.57770
C         56.98453       87.03469       54.77529
O         58.10483       85.20362       55.80848
H         58.87845       86.59432       52.90832
H         60.37831       86.47555       55.52335
H         58.16797       87.11785       56.55348
H         58.66358       85.00166       56.60468
H         56.06251       86.82754       55.35833
H         57.02947       88.12124       54.55458
H         56.89573       86.47080       53.82370
N         59.94832       89.13022       55.86971
C         60.33849       90.52747       55.85817
C         61.59383       90.69051       56.69457
O         62.58626       91.17830       56.17499
C         59.17005       91.42197       56.34819
C         59.54131       92.91148       56.29805
O         58.78305       91.07135       57.65147
H         59.76056       88.68988       56.78323
H         60.56970       90.86256       54.82018
H         58.31411       91.24858       55.65459
H         57.89512       91.48497       57.81215
H         59.82037       93.20498       55.26366
H         58.67431       93.52929       56.61378
H         60.39179       93.13140       56.97780
N         61.59913       90.34037       58.01613
C         62.69434       90.65313       58.91668
C         63.14309       89.44265       59.71790
O         62.31790       88.79461       60.34599
C         62.19646       91.73811       59.87946
C         63.33549       92.29124       60.74093
C         62.81842       93.38851       61.66703
C         63.97575       94.03673       62.43016
N         63.48346       95.08681       63.31816
H         60.75270       89.93235       58.43482
H         63.55295       91.08535       58.35707
H         61.37636       91.33744       60.51685
H         61.78583       92.57821       59.27555
H         64.11197       92.71302       60.06471
H         63.79543       91.48464       61.35287
H         62.08676       92.94978       62.38120
H         62.30668       94.17038       61.06398
H         64.68959       94.47969       61.69934
H         64.51478       93.26738       63.02679
H         62.96712       95.81072       62.76690
H         62.84937       94.67373       64.03999
H         64.29631       95.53906       63.79450
N         64.47212       89.16846       59.83811
C         64.99897       88.15610       60.74896
C         64.54855       86.74809       60.37533
O         63.93996       86.11732       61.22897
C         66.54309       88.25630       60.87124
C         67.04743       89.58664       61.47812
C         66.78008       89.71791       62.95830
O         65.52395       89.77840       63.43813
O         67.71758       89.79953       63.73663
H         65.13719       89.76671       59.32620
H         64.59507       88.35656       61.76171
H         66.99971       88.15041       59.86892
H         66.93494       87.42639       61.49956
H         66.62105       90.46081       60.94289
H         68.14972       89.61739       61.33492
N         64.77972       86.13968       59.17483
C         65.42650       86.72811       58.02142
H         66.33244       86.13897       57.76901
H         64.72529       86.69219       57.16196
H         65.71477       87.78041       58.16175
H         64.44957       85.16863       59.05966
Ca        63.02898       74.50126       51.16449
O         61.70567       77.42033       49.99828
H         61.32664       77.40712       49.08373
H         61.85224       78.37997       50.19309
O         64.31651       77.04145       52.02631
H         64.75526       76.89726       52.90203
H         63.82076       77.89179       52.13160
O         63.05914       73.66921       53.82306
H         63.36178       74.07730       54.67141
H         62.07036       73.68710       53.87274

Ca 1.0



