%chk=apoCaM-CA-Ng.loop3.water3.frame856.chk
%nprocshared=20
%mem=10GB
%nosave
#b3lyp/svp scf=(tight,noincore,xqc) Test 
#IOP(5/87=12) Density=Current Pop=(MK,readradii) iop(6/33=2) iop(6/42=6)

apoCaM-CA-Ng.loop3.water3.frame856 

   0  1 
C         68.54612       69.69106      -20.45732
C         69.57421       70.23067      -21.40494
O         69.53918       69.89723      -22.58120
H         67.84161       69.01263      -20.98410
H         69.04468       69.13274      -19.63869
H         67.96682       70.53513      -20.02533
N         70.51255       71.11115      -20.95850
C         71.48072       71.74403      -21.85179
C         72.46764       70.70527      -22.39333
O         72.56099       69.62719      -21.82155
C         72.18582       72.90387      -21.09094
C         72.67139       74.05308      -21.94070
O         72.26067       75.30313      -21.66223
O         73.45290       73.89043      -22.85317
H         70.47986       71.38490      -19.96363
H         70.89785       72.16905      -22.68453
H         72.99685       72.48805      -20.45611
H         71.44982       73.37750      -20.40428
N         73.22502       70.95592      -23.49971
C         74.21505       70.02055      -24.04527
C         75.63512       70.58914      -23.93783
O         76.57792       69.81107      -23.90651
C         73.81002       69.65530      -25.48940
C         74.74526       68.65251      -26.18226
C         74.21117       68.29658      -27.57843
C         75.15804       67.34070      -28.31641
N         74.62726       66.99372      -29.63529
H         73.06855       71.84182      -23.99349
H         74.21362       69.08559      -23.44262
H         73.76561       70.57903      -26.10361
H         72.78727       69.21781      -25.45044
H         74.82103       67.72615      -25.57208
H         75.75562       69.10257      -26.28637
H         74.09934       69.22494      -28.18097
H         73.21247       67.81729      -27.47578
H         75.29239       66.41099      -27.72042
H         76.15133       67.82768      -28.43827
H         74.50205       67.85615      -30.21387
H         75.30062       66.35723      -30.11990
H         73.70998       66.50101      -29.53506
N         75.85432       71.92867      -23.82157
C         77.14031       72.56743      -23.56337
C         77.10986       73.35025      -22.23922
O         78.12090       73.94319      -21.89219
C         77.52498       73.46777      -24.76393
C         76.40161       74.35893      -25.22622
O         75.79453       75.20107      -24.37494
O         75.98859       74.26739      -26.37106
H         75.05940       72.56144      -23.90488
H         77.94876       71.81169      -23.45167
H         77.79815       72.80767      -25.61701
H         78.42205       74.07223      -24.51164
N         76.02009       73.33870      -21.41345
C         75.97105       73.96407      -20.09951
C         75.92976       75.48570      -20.04652
O         75.86974       75.97687      -18.92801
H         75.20857       72.76135      -21.65940
H         76.83186       73.59860      -19.49824
H         75.04556       73.61788      -19.58962
N         75.96816       76.30442      -21.14445
C         75.97253       77.77070      -21.02731
C         74.92237       78.45401      -21.90481
O         74.27087       77.79889      -22.70319
C         77.38295       78.34153      -21.33350
C         77.81480       78.27053      -22.78407
N         78.09773       77.09469      -23.38776
O         77.94079       79.30935      -23.41545
H         76.03951       75.88188      -22.07371
H         75.74969       78.05639      -19.97690
H         78.14364       77.84827      -20.69083
H         77.37630       79.41388      -21.04229
H         78.05056       76.20982      -22.87338
H         78.39926       77.07194      -24.37323
N         74.75702       79.80993      -21.82668
C         73.93954       80.59974      -22.73818
C         72.46523       80.28115      -22.68006
O         71.85779       80.43528      -21.63030
H         75.30136       80.33330      -21.12522
H         74.32901       80.45911      -23.76918
H         74.05639       81.67636      -22.48612
N         71.82528       79.83879      -23.79983
C         70.40843       79.49889      -23.85800
C         70.26413       77.98555      -23.86997
O         71.26011       77.30308      -23.68559
C         69.72839       80.19444      -25.06663
C         69.57920       81.68610      -24.86087
C         68.32281       82.21197      -24.50152
C         70.66379       82.56396      -25.02064
C         68.15700       83.58203      -24.29321
C         70.49093       83.94109      -24.82540
C         69.24093       84.45323      -24.45602
O         69.09238       85.77921      -24.25942
H         72.38227       79.67573      -24.65352
H         69.87071       79.82327      -22.93938
H         68.70243       79.79533      -25.16781
H         70.23197       79.96705      -26.03154
H         67.46909       81.55904      -24.36576
H         71.63671       82.18760      -25.30827
H         67.18499       83.96338      -24.00453
H         71.32953       84.61241      -24.95947
H         68.24587       86.16778      -23.99401
N         69.03536       77.39932      -23.99958
C         68.73555       75.97904      -23.82639
C         69.56357       75.07789      -24.74231
O         70.77321       74.99755      -24.58936
C         68.87195       75.57742      -22.33167
C         68.54181       74.08538      -22.07603
C         68.02055       76.48833      -21.42811
C         67.11396       73.65237      -22.41291
H         68.21665       77.99906      -24.17040
H         67.66216       75.85448      -24.08636
H         69.92363       75.72932      -22.03070
H         68.74122       73.84979      -21.00815
H         69.21957       73.46957      -22.68582
H         68.33550       77.54840      -21.52949
H         66.94475       76.42409      -21.69123
H         68.15337       76.20248      -20.36346
H         66.37369       74.19866      -21.79551
H         66.89118       73.80645      -23.48796
H         67.00884       72.56766      -22.19948
N         68.95496       74.34051      -25.71197
C         69.71030       73.44557      -26.59197
C         69.01341       73.06212      -27.89763
O         69.66988       72.41622      -28.70566
C         70.14763       72.18514      -25.81957
O         69.03363       71.43715      -25.40968
H         67.94284       74.45114      -25.79957
H         70.61311       73.99681      -26.92936
H         70.77836       72.45200      -24.94612
H         70.78589       71.53926      -26.45926
H         68.71031       71.84241      -24.56332
N         67.73679       73.42763      -28.22010
C         67.14786       73.14024      -29.52369
C         67.86760       73.94661      -30.61014
O         68.59892       74.86193      -30.25512
C         65.66158       73.53642      -29.48163
H         67.14892       73.93252      -27.55145
H         67.22368       72.04976      -29.69606
H         65.56418       74.62359      -29.26976
H         65.12439       73.32510      -30.41733
H         65.14894       72.97359      -28.67288
N         67.70894       73.74347      -31.95272
C         67.01223       72.62270      -32.57571
C         66.75431       72.92140      -34.05072
O         67.71007       73.22343      -34.75308
C         67.86222       71.34691      -32.47990
H         68.17655       74.42041      -32.57738
H         66.06518       72.42953      -32.06364
H         67.32058       70.50081      -32.95596
H         68.83541       71.48314      -32.99798
H         68.07327       71.06225      -31.43309
N         65.52231       72.81938      -34.63803
C         64.31676       72.35703      -33.95357
C         63.75717       73.35989      -32.95225
O         62.86648       72.98706      -32.20013
C         63.20640       71.94006      -34.95559
C         62.43765       73.08674      -35.65042
C         63.27875       73.95322      -36.53916
O         63.84145       73.47645      -37.51190
O         63.39184       75.27058      -36.28247
H         65.48820       72.97475      -35.65406
H         64.60050       71.42085      -33.42320
H         62.44463       71.36585      -34.38322
H         63.63451       71.24594      -35.71171
H         61.94860       73.71838      -34.87836
H         61.63121       72.64159      -36.27177
N         64.17600       74.65674      -32.91475
C         63.58884       75.62173      -32.00892
H         62.49511       75.69750      -32.19311
H         63.76114       75.31722      -30.95669
H         64.04236       76.62217      -32.17153
H         64.90114       74.98943      -33.56599
Ca        73.83784       76.15091      -24.98365
O         72.10347       76.37770      -27.37845
H         71.87837       75.79204      -28.14416
H         71.31330       76.96394      -27.26889
O         75.40062       77.91319      -26.67548
H         75.32400       78.80173      -26.24557
H         74.70899       77.91848      -27.38423
O         73.12441       73.41777      -26.47604
H         73.80882       72.96371      -25.92710
H         72.91076       72.76607      -27.18946

Ca 1.0



