%chk=apoCaM-CA-Ng.loop2.water3.frame339.chk
%nprocshared=20
%mem=10GB
%nosave
#b3lyp/svp scf=(tight,noincore,xqc) Test 
#IOP(5/87=12) Density=Current Pop=(MK,readradii) iop(6/33=2) iop(6/42=6)

apoCaM-CA-Ng.loop2.water3.frame339 

   -2  1 
C         63.42306      109.52009       51.66679
C         63.46371      111.00568       51.46012
O         63.06378      111.74157       52.34809
H         62.77601      109.05823       50.89074
H         64.44620      109.09816       51.58837
H         63.00527      109.27090       52.66607
N         63.95548      111.51952       50.29928
C         63.95645      112.94701       49.98689
C         62.52687      113.39984       49.74519
O         61.86302      112.79558       48.91183
C         64.81152      113.19931       48.72549
C         64.98950      114.65927       48.38801
O         64.44265      115.62967       49.14677
O         65.66046      114.97037       47.41766
H         64.34114      110.85808       49.60660
H         64.43381      113.50584       50.82288
H         64.36033      112.67486       47.85461
H         65.82491      112.77576       48.89878
N         61.97704      114.45290       50.42172
C         60.57972      114.83273       50.21911
C         59.64941      113.73819       50.71358
O         58.49813      113.70691       50.30242
C         60.24532      116.15184       50.91696
H         62.55987      114.98628       51.08481
H         60.42438      114.97945       49.12614
H         60.38988      116.06109       52.01449
H         60.90349      116.95834       50.52973
H         59.19001      116.43632       50.71366
N         60.09501      112.80553       51.60625
C         59.34367      111.65095       52.05840
C         58.07859      112.09268       52.76497
O         56.98667      111.74711       52.33344
C         59.12204      110.69292       50.86718
C         58.60933      109.36272       51.32182
O         59.33680      108.63013       52.18737
O         57.55062      108.93102       50.89621
H         61.03764      112.90425       51.99517
H         59.97404      111.10729       52.79911
H         60.09853      110.50810       50.36786
H         58.43436      111.14390       50.11941
N         58.16948      112.88205       53.87466
C         57.00762      113.40227       54.57526
C         56.86545      112.87513       55.98674
O         55.87095      113.22485       56.60683
H         59.10338      113.14355       54.22661
H         56.07277      113.12885       54.04007
H         57.06426      114.51152       54.59302
N         57.76486      112.01533       56.55895
C         57.53345      111.39053       57.85852
C         58.61928      111.74881       58.86421
O         59.78080      111.43865       58.63751
C         57.47100      109.86716       57.66591
C         57.09935      109.17511       58.94942
N         57.96367      108.33072       59.54983
O         56.00810      109.38725       59.45702
H         58.61345      111.74036       56.04291
H         56.55115      111.71374       58.26656
H         58.45691      109.50910       57.29432
H         56.71033      109.61011       56.89712
H         58.88998      108.14801       59.15204
H         57.71140      107.86608       60.42626
N         58.29274      112.39307       60.02107
C         59.25635      112.72482       61.05826
C         59.69169      111.50310       61.83779
O         58.83262      110.86140       62.42743
H         57.31476      112.68531       60.17073
H         58.76368      113.39555       61.79621
H         60.11082      113.28154       60.61909
N         61.00772      111.13927       61.91854
C         61.47671      110.02583       62.75219
C         61.95340      108.83323       61.93242
O         62.13025      107.76852       62.50750
C         62.57197      110.49446       63.74967
C         63.87949      110.94958       63.07052
O         62.07630      111.50662       64.59096
H         61.69666      111.68466       61.38049
H         60.62435      109.64121       63.35326
H         62.83766      109.63055       64.39744
H         61.98570      112.33581       64.05193
H         63.71763      111.83464       62.42166
H         64.62856      111.22360       63.84335
H         64.30735      110.13201       62.45448
N         62.18193      108.93222       60.59421
C         62.54151      107.81400       59.73080
C         61.50754      107.71148       58.63207
O         61.08601      108.71887       58.08138
C         63.99712      107.98159       59.19709
C         65.03658      107.52820       60.26525
C         64.25481      107.25351       57.86153
C         65.07967      106.00700       60.52894
H         62.09540      109.85084       60.13851
H         62.48859      106.85387       60.27762
H         64.15678      109.06156       58.98221
H         64.83920      108.05213       61.22375
H         66.05089      107.82326       59.92157
H         64.03766      106.16845       57.93269
H         63.61283      107.68018       57.06234
H         65.30864      107.40037       57.54379
H         65.85245      105.78153       61.29216
H         64.11908      105.60575       60.90717
H         65.35818      105.44789       59.61122
N         61.11115      106.47614       58.22539
C         60.10447      106.22271       57.20954
C         59.12149      105.14759       57.71819
O         58.34831      104.61617       56.93427
C         60.86242      105.80626       55.93330
C         60.02150      105.77382       54.68516
O         58.71681      106.10891       54.70754
O         60.54479      105.48131       53.62224
H         61.59581      105.65452       58.62164
H         59.55232      107.15488       56.95866
H         61.35876      104.83288       56.09383
H         61.65807      106.56022       55.74131
N         59.09381      104.78872       59.03952
C         58.26825      103.71928       59.59741
C         58.78754      102.36022       59.13160
O         59.99298      102.15536       59.20032
C         58.35624      103.74014       61.14290
C         57.86116      105.03492       61.75060
C         58.75215      105.87267       62.44581
C         56.50958      105.41177       61.64573
C         58.30144      107.06354       63.02307
C         56.06091      106.60227       62.23131
C         56.95618      107.42721       62.91976
H         59.68402      105.30517       59.70601
H         57.20542      103.88209       59.32088
H         59.41636      103.56924       61.43491
H         57.75579      102.90624       61.56916
H         59.79797      105.60779       62.53728
H         55.80214      104.78262       61.12034
H         58.99627      107.70453       63.54917
H         55.01992      106.88773       62.15005
H         56.61040      108.35067       63.36623
N         57.96150      101.34742       58.72172
C         58.42064      100.01108       58.35102
C         59.43598       99.98115       57.22703
O         60.24138       99.06300       57.17705
C         57.13944       99.32233       57.86589
C         56.09620       99.94839       58.75703
C         56.51368      101.41711       58.73565
H         58.82691       99.51612       59.26222
H         56.90147       99.65491       56.82792
H         57.18402       98.21200       57.87957
H         55.04148       99.76076       58.46531
H         56.26019       99.54777       59.78455
H         56.17388      101.94367       57.81711
H         56.10194      101.89755       59.64901
N         59.39373      100.91920       56.24370
C         60.25074      100.89649       55.06431
C         61.71457      100.96978       55.44850
O         62.47022      100.08808       55.06189
C         59.87984      102.05712       54.11723
C         58.45352      101.89069       53.55919
C         58.06988      103.03288       52.67248
O         58.71046      103.27246       51.66143
O         56.99536      103.78501       52.98017
H         58.69840      101.67365       56.33367
H         60.08424       99.94751       54.50574
H         60.59000      102.07536       53.26083
H         59.96516      103.01827       54.66577
H         57.71184      101.83687       54.38208
H         58.39067      100.94762       52.97569
N         62.18902      101.98862       56.21190
C         63.58758      102.09542       56.56695
H         64.20431      102.19112       55.64730
H         63.75185      102.99350       57.19924
H         63.90748      101.19467       57.13291
H         61.53614      102.70295       56.55911
Ca        58.09584      106.14821       51.81167
O         55.97202      107.77361       53.17021
H         55.36409      107.53677       53.91417
H         55.37314      107.92493       52.39613
O         55.86826      105.43984       50.04262
H         56.53225      105.92258       49.48839
H         56.21138      104.51195       50.08731
O         60.49471      105.75120       50.19197
H         61.40878      106.06020       49.97214
H         60.04175      105.66049       49.31605

Ca 1.0



