%chk=apoCaM-CA-Ng.loop1.water4.frame948.chk
%nprocshared=20
%mem=10GB
%nosave
#b3lyp/svp scf=(tight,noincore,xqc) Test 
#IOP(5/87=12) Density=Current Pop=(MK,readradii) iop(6/33=2) iop(6/42=6)

apoCaM-CA-Ng.loop1.water4.frame948 

   0  1 
C         92.33804       76.72518       66.22898
C         91.08930       75.91260       66.07595
O         91.07312       75.00465       65.25625
H         93.12298       76.37157       65.52553
H         92.11786       77.79067       66.00963
H         92.71873       76.63081       67.26667
N         89.98965       76.19661       66.83258
C         88.73560       75.45607       66.71620
C         87.58137       76.34722       66.18378
O         88.05838       77.58888       65.73891
C         88.35777       74.78350       68.05485
C         88.08684       75.71701       69.21208
O         87.76712       75.19654       70.41185
O         88.14743       76.92924       69.08792
H         90.04553       76.98326       67.49604
H         88.87480       74.62483       65.98937
H         89.18782       74.10536       68.34949
H         87.44828       74.16374       67.89997
N         86.85970       75.62788       65.12088
C         85.78611       76.34833       64.40959
C         84.51085       76.43148       65.23973
O         83.51621       75.79746       64.91866
C         85.60608       75.71174       63.00813
C         85.27029       74.20536       62.97219
C         85.31966       73.69275       61.52138
C         85.07536       72.17976       61.39182
N         83.69386       71.80675       61.69747
H         86.48114       74.73335       65.51246
H         86.09953       77.39300       64.18800
H         86.57556       75.85108       62.47959
H         84.83173       76.27691       62.44355
H         84.27149       74.02408       63.41377
H         86.02695       73.63764       63.55322
H         86.34138       73.89200       61.12919
H         84.59269       74.24395       60.88589
H         85.77891       71.62319       62.05031
H         85.29138       71.88565       60.34054
H         83.58525       70.77593       61.55839
H         83.45245       72.03424       62.68710
H         83.04060       72.30039       61.04630
N         84.47639       77.27306       66.30904
C         83.34218       77.46821       67.18902
C         82.71878       78.84826       66.99470
O         83.41684       79.75117       66.55623
C         83.71954       77.19570       68.66689
C         84.70273       78.09518       69.41560
O         84.79480       77.91310       70.61920
O         85.45110       79.09666       68.88438
H         85.28980       77.83845       66.47408
H         82.58229       76.71983       66.89307
H         84.08222       76.14864       68.75191
H         82.77557       77.25678       69.24679
N         81.38439       79.09067       67.18866
C         80.42145       78.10461       67.65611
C         79.56808       77.62473       66.51533
O         80.12105       77.20049       65.50933
H         81.01820       80.02312       66.94142
H         79.82451       78.52363       68.49409
H         80.90664       77.20498       68.06369
N         78.21280       77.56882       66.63012
C         77.37599       77.00383       65.57946
C         77.32548       77.95350       64.39885
O         76.88558       79.08388       64.56250
C         75.95935       76.70991       66.11871
C         75.07943       75.95228       65.15265
O         75.48016       75.62266       64.04667
O         73.83427       75.60767       65.53013
H         77.77942       77.85850       67.52063
H         77.80620       76.01798       65.28778
H         75.45883       77.65849       66.40823
H         76.05837       76.07630       67.02721
N         77.75199       77.55441       63.16883
C         77.69760       78.41355       61.99789
C         78.68032       79.56968       62.02509
O         78.69137       80.31689       61.05714
H         78.08595       76.58674       63.04219
H         76.66024       78.79064       61.86710
H         77.95178       77.80518       61.10217
N         79.56742       79.75972       63.04773
C         80.61011       80.78134       63.02657
C         80.47899       81.71368       64.22927
O         79.65903       81.46825       65.10366
C         81.98946       80.05577       63.04884
C         82.13089       79.03570       61.91279
O         83.03929       80.98024       62.94187
H         79.56667       79.12020       63.85185
H         80.53548       81.39635       62.10306
H         82.06327       79.50461       64.01765
H         83.82369       80.58512       63.40400
H         83.12220       78.53839       61.98101
H         81.35460       78.24546       61.98719
H         82.04745       79.53895       60.92672
N         81.31188       82.78783       64.35272
C         81.41959       83.59279       65.56922
C         80.19501       84.43840       65.89816
O         80.20669       85.02653       66.97117
C         82.69905       84.49346       65.54849
C         82.64846       85.56519       64.42294
C         83.96584       83.61692       65.47139
C         83.82663       86.54064       64.45649
H         81.96935       82.96858       63.58501
H         81.54721       82.88199       66.41724
H         82.74636       85.02625       66.52484
H         81.72388       86.16986       64.54186
H         82.61926       85.09109       63.42029
H         83.96247       82.87290       66.29641
H         84.03420       83.07494       64.50695
H         84.88319       84.22577       65.59445
H         83.87569       87.05362       65.44014
H         84.78655       86.02161       64.26035
H         83.69370       87.30625       63.66317
N         79.12138       84.57383       65.06302
C         77.96841       85.40642       65.41367
C         77.81015       86.55123       64.42672
O         78.46675       86.57276       63.39490
C         76.69334       84.52982       65.50882
C         76.83938       83.47800       66.61453
O         75.57137       85.32316       65.79937
H         79.11089       84.08663       64.15530
H         78.12540       85.88914       66.40287
H         76.54948       84.02345       64.52497
H         74.77207       84.82513       65.48452
H         77.70082       82.80862       66.41779
H         76.98854       83.97666       67.59715
H         75.92111       82.85674       66.67003
N         76.97430       87.58207       64.73910
C         76.75141       88.74857       63.90020
C         77.25958       89.99311       64.61134
O         78.07049       90.70589       64.03558
C         75.24014       88.85302       63.54587
C         74.93460       90.06397       62.65312
O         74.46021       88.92786       64.71239
H         76.48256       87.55292       65.64334
H         77.30360       88.65439       62.93755
H         74.97370       87.92570       62.98619
H         73.53936       88.64826       64.46829
H         75.17413       91.01356       63.17782
H         75.52016       90.01031       61.71175
H         73.85397       90.07803       62.39476
N         76.78456       90.33947       65.84250
C         77.07220       91.61430       66.48746
C         77.58770       91.45377       67.90669
O         77.11989       90.57957       68.62451
C         75.77138       92.45862       66.51866
C         74.65740       91.84228       67.39303
C         73.36263       92.64963       67.35815
C         72.32532       91.99626       68.28522
N         71.05788       92.72016       68.25535
H         76.12178       89.70693       66.30744
H         77.80861       92.20025       65.89379
H         75.40412       92.57031       65.47478
H         76.00592       93.47372       66.90907
H         75.00027       91.79763       68.44778
H         74.41733       90.81701       67.04716
H         72.97451       92.67266       66.31649
H         73.55888       93.69032       67.69611
H         72.71689       91.98469       69.32781
H         72.15018       90.94297       67.96920
H         70.65998       92.70051       67.28851
H         70.38676       92.25430       68.90815
H         71.20176       93.70904       68.56291
N         78.39082       92.41986       68.43470
C         78.59965       92.57863       69.86973
C         79.18334       91.33687       70.54280
O         78.53335       90.84389       71.45411
C         79.38034       93.88119       70.16776
C         79.35144       94.24667       71.65956
C         80.06577       95.54369       71.91319
O         79.68606       96.57289       71.37648
O         81.12072       95.58000       72.74894
H         78.75644       93.15010       67.80334
H         77.58866       92.74581       70.30969
H         78.88672       94.71102       69.61364
H         80.42340       93.82453       69.80981
H         79.82932       93.44139       72.25629
H         78.29611       94.35676       71.99352
N         80.35452       90.73186       70.19152
C         81.21199       91.14113       69.10285
H         82.06907       90.43816       69.02708
H         80.65752       91.10953       68.14328
H         81.63201       92.14549       69.28157
H         80.64102       89.89350       70.72180
Ca        87.03393       78.97250       67.24386
O         86.64927       82.06971       68.21890
H         87.33681       82.30306       68.89204
H         85.84125       81.86064       68.75158
O         89.39807       80.38654       65.40222
H         88.95722       80.23503       64.52860
H         90.32476       80.06360       65.27100
O         87.75380       79.80208       70.83447
H         86.84189       79.94459       71.19310
H         88.05524       78.95715       71.25352
O         86.24941       81.06062       64.96441
H         86.12512       80.25795       64.39835
H         85.70161       80.88260       65.76895

Ca 1.0



