%chk=apoCaM-CA-Ng.loop4.water6.frame536.chk
%nprocshared=20
%mem=10GB
%nosave
#b3lyp/svp scf=(tight,noincore,xqc) Test 
#IOP(5/87=12) Density=Current Pop=(MK,readradii) iop(6/33=2) iop(6/42=6)

apoCaM-CA-Ng.loop4.water6.frame536 

   -3  1 
C         86.74971       -4.56076       70.55814
C         86.34724       -4.95261       71.94893
O         86.13342       -4.08105       72.77603
H         87.74648       -4.98965       70.32274
H         86.00479       -4.94941       69.83218
H         86.80279       -3.45567       70.45732
N         86.22394       -6.27035       72.27035
C         85.83131       -6.78425       73.58069
C         84.41434       -6.35318       73.93206
O         84.19298       -5.78716       74.99406
C         86.85227       -6.38738       74.67452
C         88.25336       -6.78183       74.31020
O         89.20649       -5.83660       74.20783
O         88.53669       -7.95223       74.11143
H         86.42011       -6.96673       71.53431
H         85.82239       -7.89538       73.51337
H         86.57883       -6.88027       75.63246
H         86.82880       -5.28946       74.84104
N         83.39897       -6.58341       73.05197
C         82.01467       -6.17826       73.28323
C         81.10785       -7.39677       73.12571
O         81.17351       -8.02363       72.07721
C         81.61118       -5.06278       72.26687
C         82.52690       -3.82715       72.45733
C         80.12907       -4.66631       72.45109
C         82.28430       -2.69035       71.46339
H         83.62555       -7.03160       72.15030
H         81.90958       -5.73679       74.29267
H         81.74332       -5.45348       71.23326
H         83.58281       -4.13406       72.33180
H         82.39575       -3.43807       73.48656
H         79.95909       -4.24342       73.46429
H         79.81389       -3.92026       71.69571
H         79.46068       -5.54064       72.31242
H         81.27032       -2.25729       71.57420
H         83.01333       -1.87511       71.65841
H         82.42594       -3.05210       70.42358
N         80.17758       -7.77908       74.05396
C         79.92109       -7.08163       75.31217
C         80.95389       -7.39389       76.38652
O         80.96915       -6.69890       77.39143
C         78.48561       -7.35971       75.81656
C         78.16810       -8.79749       76.14448
O         77.04428       -9.08557       76.52313
O         79.09086       -9.77152       76.02519
H         79.55598       -8.55958       73.79084
H         79.93209       -5.99075       75.11151
H         77.77698       -7.02200       75.02815
H         78.29625       -6.75413       76.72675
N         81.82357       -8.43762       76.26663
C         82.80898       -8.78435       77.27683
C         82.17602       -9.14105       78.60563
O         81.32478      -10.01878       78.64391
H         81.79021       -9.03498       75.42782
H         83.53650       -7.95306       77.39212
H         83.37100       -9.67743       76.92545
N         82.60353       -8.54010       79.75495
C         82.12195       -8.93128       81.07960
C         80.66372       -8.56356       81.34392
O         80.12607       -9.05439       82.32710
C         83.07796       -8.42097       82.18947
C         83.32423       -6.93569       82.18555
O         82.42336       -6.15358       82.42409
O         84.56463       -6.46345       81.95213
H         83.36917       -7.85314       79.68435
H         82.17758      -10.04194       81.13378
H         84.06046       -8.91643       82.03193
H         82.70702       -8.72838       83.19127
N         79.96081       -7.71159       80.54157
C         78.55361       -7.38788       80.75372
C         78.35155       -5.98970       81.30227
O         77.20929       -5.59436       81.47982
H         80.44087       -7.23756       79.76603
H         78.08459       -8.08445       81.48094
H         78.01722       -7.50647       79.78743
N         79.41363       -5.20597       81.64135
C         79.34403       -3.88061       82.24116
C         78.73120       -2.89080       81.27184
O         77.85140       -2.12525       81.64321
C         78.64916       -3.91189       83.62587
C         79.29582       -4.94281       84.57207
C         78.64509       -4.99710       85.93432
N         79.09004       -5.88415       86.85428
O         77.71623       -4.25304       86.21532
H         80.35902       -5.56213       81.48068
H         80.39323       -3.54320       82.40083
H         77.57425       -4.16591       83.50561
H         78.71534       -2.90064       84.08452
H         80.37244       -4.70119       84.70221
H         79.21118       -5.95524       84.12146
H         79.86707       -6.52451       86.63380
H         78.65417       -5.93650       87.78707
N         79.15622       -2.88502       79.97680
C         78.64912       -1.97579       78.95618
C         79.76989       -1.30402       78.16792
O         79.43939       -0.52128       77.28798
C         77.72567       -2.74347       77.96151
C         78.45035       -3.89485       77.23984
C         76.47054       -3.27466       78.66402
H         79.83213       -3.60907       79.69144
H         78.04332       -1.16792       79.42385
H         77.37544       -2.02451       77.18754
H         78.77476       -4.67730       77.95750
H         77.76887       -4.36323       76.49913
H         79.33973       -3.52422       76.68954
H         75.79653       -3.75931       77.92569
H         76.73406       -4.01922       79.44096
H         75.91602       -2.43754       79.13902
N         81.09458       -1.60158       78.35375
C         82.12823       -1.15013       77.42703
C         83.17894       -0.30080       78.12859
O         83.18947       -0.23525       79.34918
C         82.66915       -2.41265       76.72395
C         83.62408       -2.15551       75.59559
N         84.79864       -2.81670       75.53603
O         83.31518       -1.38645       74.69802
H         81.39007       -2.24098       79.10353
H         81.67432       -0.50052       76.64886
H         81.79662       -2.93691       76.27623
H         83.12008       -3.10186       77.47300
H         85.05334       -3.50302       76.26163
H         85.44526       -2.65908       74.75144
N         84.01463        0.48955       77.38895
C         84.91164        1.47728       77.99384
C         85.40284        2.51178       76.98422
O         85.18635        2.36166       75.79052
C         86.11312        0.80415       78.70197
C         87.00465        0.02587       77.75676
C         86.73136       -1.32113       77.47438
C         88.12958        0.63042       77.16652
C         87.56189       -2.04773       76.61172
C         88.95098       -0.09892       76.29876
C         88.66853       -1.43599       76.01430
O         89.46581       -2.12196       75.16975
H         83.90847        0.46559       76.36687
H         84.31703        2.05455       78.73612
H         85.77066        0.13471       79.51880
H         86.72247        1.58356       79.20804
H         85.87740       -1.80856       77.92697
H         88.36940        1.66543       77.37328
H         87.34838       -3.08733       76.40299
H         89.81145        0.36848       75.84643
H         89.29525       -3.04602       74.93687
N         86.07546        3.61569       77.42816
C         86.62803        4.63127       76.54126
C         88.12824        4.69184       76.77458
O         88.52404        5.11086       77.85356
C         85.99507        6.01042       76.82587
C         84.48827        6.03831       76.53792
C         83.91325        7.38829       76.86373
O         83.96859        7.85966       78.12479
O         83.38515        8.06017       75.99223
H         86.21632        3.73637       78.44238
H         86.41212        4.37761       75.49079
H         86.48825        6.77575       76.18550
H         86.16959        6.28015       77.89181
H         83.96244        5.27784       77.15315
H         84.31881        5.80546       75.46334
N         89.05330        4.24338       75.87573
C         88.74716        3.60127       74.60257
C         88.23211        4.60505       73.58934
O         88.92071        5.58035       73.32080
C         90.01277        2.91372       74.04648
C         89.69284        2.02839       72.82867
C         90.89684        1.28619       72.31642
O         90.77619        0.53489       71.36239
O         92.10569        1.42937       72.89546
H         90.04257        4.28384       76.17062
H         88.00986        2.78806       74.78993
H         90.43342        2.26424       74.84092
H         90.78382        3.67289       73.78810
H         89.28576        2.65281       72.00526
H         88.92472        1.27798       73.11978
N         87.04551        4.39840       72.95271
C         86.52465        5.28369       71.93049
H         85.53087        5.66519       72.24224
H         87.19141        6.15071       71.73829
H         86.41314        4.71767       70.98145
H         86.49006        3.56004       73.18028
Ca        91.33331       -6.19310       72.20571
O         91.69692       -7.23121       75.28166
H         91.69114       -7.14351       76.26770
H         91.18613       -8.06037       75.10285
O         89.94961       -3.35657       72.00558
H         90.43965       -2.79374       71.35485
H         89.03688       -2.97409       72.02855
O         91.14643       -9.16421       71.50899
H         92.06478       -9.12059       71.87710
H         91.26861       -9.09484       70.52878
O         91.85385       -4.81432       69.55880
H         92.54247       -4.11446       69.68660
H         92.36641       -5.62650       69.31735
O         94.25317       -6.84477       72.99185
H         94.23185       -5.94921       73.41371
H         94.11479       -7.47573       73.74221
O         92.35329       -3.83376       74.07036
H         92.64326       -3.77459       75.01514
H         92.72810       -3.02295       73.64306

Ca 1.0



