%chk=apoCaM-CA-Ng.loop1.water3.frame42.chk
%nprocshared=20
%mem=10GB
%nosave
#b3lyp/svp scf=(tight,noincore,xqc) Test 
#IOP(5/87=12) Density=Current Pop=(MK,readradii) iop(6/33=2) iop(6/42=6)

apoCaM-CA-Ng.loop1.water3.frame42 

   0  1 
C         62.53390       50.78452       66.70106
C         62.21003       50.27077       68.07434
O         61.35138       50.84455       68.72726
H         62.89361       51.83235       66.76935
H         63.32052       50.17226       66.21147
H         61.62145       50.75345       66.06917
N         62.86162       49.18491       68.57710
C         62.59679       48.61821       69.89621
C         63.82778       48.67464       70.79400
O         63.79332       48.08117       71.86277
C         62.06307       47.17417       69.75776
C         63.06854       46.17787       69.24751
O         63.54324       46.28143       68.12843
O         63.42430       45.13848       70.02677
H         63.58426       48.73759       67.99397
H         61.79278       49.18509       70.41282
H         61.16936       47.16964       69.09720
H         61.73087       46.83542       70.76177
N         64.93320       49.40082       70.45055
C         66.14520       49.45982       71.25709
C         66.31274       50.86422       71.83290
O         66.24319       51.80231       71.05074
C         67.37919       49.14651       70.37597
C         67.38589       47.78672       69.65641
C         67.33746       46.57966       70.60564
C         67.66602       45.25105       69.89422
N         66.74943       44.94249       68.79604
H         64.92327       49.96419       69.58791
H         66.10001       48.71677       72.06626
H         68.29281       49.20602       71.00420
H         67.47015       49.92851       69.58968
H         68.33805       47.74339       69.08243
H         66.54274       47.73819       68.93498
H         66.33759       46.52169       71.08719
H         68.10411       46.71132       71.39947
H         67.62218       44.43175       70.64600
H         68.70535       45.29232       69.49878
H         66.82787       45.65340       68.03439
H         67.00391       44.01106       68.39448
H         65.76974       44.89797       69.14838
N         66.60143       51.14328       73.14629
C         66.84007       50.18752       74.22641
C         67.89794       49.15759       73.83786
O         67.60630       47.97038       73.83028
C         65.50532       49.63235       74.78120
C         64.74219       50.75264       75.46121
O         63.48526       51.08744       75.11280
O         65.27659       51.37661       76.36506
H         66.74586       52.13641       73.38961
H         67.28938       50.72802       75.08826
H         65.72790       48.87104       75.56050
H         64.89741       49.15212       73.98989
N         69.17407       49.52890       73.51317
C         69.62464       50.91143       73.59833
C         71.07953       51.13576       73.22417
O         71.75747       50.19270       72.84182
H         69.83661       48.79094       73.23644
H         69.47798       51.22611       74.64568
H         69.02506       51.54326       72.91659
N         71.65360       52.37896       73.28431
C         70.96566       53.58487       73.75161
C         70.49812       53.43065       75.19119
O         69.33273       53.69663       75.45584
C         71.78339       54.88000       73.50727
C         73.15525       55.01415       74.12170
O         73.72832       54.02760       74.82985
O         73.78092       56.04602       73.93946
H         72.63450       52.46675       72.97702
H         70.05673       53.73312       73.12466
H         71.16515       55.73661       73.85569
H         71.91645       54.98984       72.40852
N         71.30117       52.85902       76.13233
C         70.83807       52.45245       77.44893
C         70.94863       50.94818       77.56991
O         71.41454       50.30354       76.63677
H         72.26096       52.59163       75.88344
H         69.77771       52.73994       77.61511
H         71.45834       52.93949       78.23076
N         70.53187       50.30500       78.69625
C         70.63677       48.85005       78.83170
C         69.84048       48.12395       77.74878
O         69.08579       48.75729       77.02364
C         70.23814       48.37398       80.25434
C         68.76754       48.64368       80.59703
O         71.04602       49.00889       81.21194
H         70.16087       50.87245       79.47317
H         71.70812       48.58727       78.68241
H         70.38284       47.27116       80.33010
H         71.93281       48.56262       81.18308
H         68.09533       48.12298       79.88369
H         68.55015       48.26339       81.61810
H         68.53847       49.72891       80.58106
N         70.01074       46.78264       77.55992
C         69.36745       46.03589       76.48193
C         68.51907       44.93664       77.08620
O         69.05983       44.12989       77.83052
C         70.43268       45.40749       75.52963
C         71.46270       46.46014       75.04796
C         69.72059       44.74264       74.33083
C         72.57435       45.87017       74.17440
H         70.66119       46.27412       78.17784
H         68.72882       46.70850       75.87110
H         70.99500       44.62942       76.09359
H         71.96047       46.91043       75.93310
H         70.95202       47.26910       74.49131
H         70.43130       44.19725       73.68005
H         68.98219       43.99734       74.67747
H         69.18421       45.50423       73.72455
H         73.10154       45.05701       74.71793
H         72.17643       45.47519       73.21812
H         73.30920       46.66333       73.92402
N         67.19356       44.81630       76.77653
C         66.36343       43.73743       77.31074
C         65.89473       42.75974       76.23755
O         65.40315       41.70682       76.62119
C         65.18146       44.30487       78.13464
C         64.18118       45.09887       77.28498
O         65.66736       45.14142       79.15285
H         66.77383       45.49911       76.12964
H         66.97159       43.12123       78.00834
H         64.61340       43.46031       78.59079
H         66.06839       44.55268       79.84442
H         63.74968       44.45983       76.48623
H         63.34886       45.45544       77.92802
H         64.65864       45.98604       76.82075
N         66.01571       43.01045       74.89424
C         65.66261       42.05750       73.83242
C         64.18197       41.65370       73.89414
O         63.48251       42.07727       74.80429
C         66.61114       40.81870       73.90001
C         68.08828       41.22631       73.90381
O         66.40168       39.98116       72.79323
H         66.39871       43.91386       74.58290
H         65.83610       42.55949       72.85386
H         66.40487       40.26111       74.84280
H         66.55690       39.04758       73.09340
H         68.72883       40.31935       73.92711
H         68.33404       41.81354       72.99280
H         68.32599       41.82300       74.80652
N         63.63688       40.80060       72.97221
C         62.29538       40.24393       73.13785
C         61.18526       41.27731       73.08948
O         60.09842       40.96880       73.55922
C         62.01837       39.07862       72.16255
C         61.98279       39.46976       70.67315
C         61.66826       38.23160       69.81982
C         61.62450       38.55781       68.32196
N         61.29658       37.36272       67.54277
H         64.21537       40.46391       72.19346
H         62.27705       39.79795       74.15820
H         61.03967       38.62452       72.43383
H         62.80339       38.30467       72.31239
H         62.96308       39.88931       70.36205
H         61.19772       40.23834       70.50354
H         60.68103       37.82201       70.12747
H         62.44584       37.45570       69.99562
H         62.61425       38.94889       67.99683
H         60.85622       39.33970       68.13192
H         62.01708       36.62038       67.69840
H         60.35511       37.00024       67.82009
H         61.27713       37.60723       66.52652
N         61.36361       42.50422       72.52450
C         60.33609       43.53568       72.53234
C         59.83183       43.76685       71.12386
O         60.61517       44.12267       70.25473
C         60.93163       44.81290       73.14201
C         59.92651       45.96947       73.22037
C         60.61612       47.17831       73.76649
O         61.09151       47.16021       74.89140
O         60.76817       48.27194       72.99908
H         62.25987       42.72199       72.06237
H         59.47723       43.23056       73.16983
H         61.80468       45.13188       72.52976
H         61.29848       44.57959       74.16684
H         59.06464       45.69988       73.86865
H         59.54659       46.20763       72.20394
N         58.51142       43.58422       70.83742
C         57.93689       43.79709       69.52543
H         57.14614       44.57345       69.59522
H         58.69002       44.12927       68.78100
H         57.47940       42.85095       69.16836
H         57.86893       43.28218       71.58544
Ca        62.10285       49.85707       73.84943
O         59.82314       51.02715       71.55272
H         59.54094       50.29735       70.94585
H         59.99983       51.79505       70.95306
O         61.01804       52.99058       74.10056
H         60.03159       53.07399       74.11768
H         61.32595       53.51238       74.88373
O         62.85286       51.94905       71.78309
H         62.83707       52.35422       70.88021
H         63.70972       52.24849       72.17772

Ca 1.0



