%chk=apoCaM-CA-Ng.loop4.water5.frame694.chk
%nprocshared=20
%mem=10GB
%nosave
#b3lyp/svp scf=(tight,noincore,xqc) Test 
#IOP(5/87=12) Density=Current Pop=(MK,readradii) iop(6/33=2) iop(6/42=6)

apoCaM-CA-Ng.loop4.water5.frame694 

   -3  1 
C         88.72351       80.42702      100.98177
C         90.04564       80.78108      101.59960
O         90.65716       81.74191      101.16634
H         88.01326       81.27194      101.09729
H         88.86774       80.21936       99.90003
H         88.28283       79.52348      101.45361
N         90.54290       80.05809      102.64012
C         91.84508       80.28508      103.26298
C         92.03346       81.73186      103.69773
O         93.06235       82.32401      103.40026
C         92.98658       79.82042      102.32962
C         92.85448       78.36891      101.97637
O         92.86068       77.43800      102.94884
O         92.75508       78.02606      100.80922
H         89.96660       79.29439      103.02594
H         91.88588       79.65912      104.18210
H         93.96387       79.95492      102.84185
H         92.99185       80.43354      101.40117
N         91.05655       82.37948      104.38670
C         91.20825       83.76632      104.82946
C         92.18230       83.83033      106.00959
O         92.29497       82.83394      106.71089
C         89.82516       84.39413      105.21037
C         89.17909       83.69398      106.43961
C         88.89519       84.39979      103.97887
C         87.85563       84.31604      106.88194
H         90.17319       81.87671      104.54736
H         91.60596       84.35239      103.97147
H         89.98546       85.45560      105.48783
H         89.87442       83.77665      107.30148
H         89.00071       82.61774      106.24409
H         87.95535       84.94880      104.18910
H         89.38683       84.92344      103.13118
H         88.63641       83.37010      103.65597
H         87.07366       84.18527      106.10685
H         87.50299       83.80328      107.80169
H         87.98848       85.39575      107.10335
N         92.87371       84.95489      106.37074
C         92.94485       86.18183      105.58006
C         93.77903       85.98944      104.31226
O         93.73320       86.84686      103.44143
C         93.46758       87.37153      106.42352
C         94.90594       87.25762      106.86805
O         95.79556       88.19566      106.49200
O         95.26969       86.35043      107.59860
H         93.39522       84.90764      107.25716
H         91.91354       86.45751      105.28927
H         92.82259       87.48287      107.32315
H         93.36344       88.30116      105.82297
N         94.56768       84.88615      104.14717
C         95.30900       84.57084      102.93946
C         96.33111       85.61415      102.56833
O         97.16670       85.96215      103.39038
H         94.64125       84.19618      104.90738
H         94.59537       84.40712      102.10359
H         95.85277       83.61536      103.10389
N         96.35529       86.09820      101.29546
C         97.34162       87.04400      100.79483
C         96.68829       88.30233      100.23081
O         97.42116       89.15010       99.74196
C         98.27524       86.31918       99.78574
C         97.58910       85.55048       98.68521
O         97.73375       84.21263       98.61567
O         96.93469       86.12112       97.83364
H         95.66530       85.73560      100.61902
H         98.00894       87.39650      101.61192
H         98.86503       85.57769      100.36751
H         98.99876       87.03713       99.34146
N         95.33781       88.53443      100.29793
C         94.72205       89.74701       99.76419
C         94.77796       89.82960       98.24678
O         94.40038       90.85246       97.69523
H         94.71800       87.85846      100.76579
H         95.23070       90.62772      100.21199
H         93.65078       89.78381      100.05876
N         95.21367       88.77218       97.51111
C         95.34349       88.71238       96.06470
C         94.00153       88.84032       95.37334
O         93.90261       89.51664       94.35854
C         96.42216       89.68422       95.53099
C         97.76483       89.48186       96.25674
C         98.89509       90.31084       95.70149
N        100.11775       90.23895       96.27713
O         98.72281       91.04200       94.73694
H         95.45877       87.90980       98.00132
H         95.69418       87.68245       95.82623
H         96.09489       90.73904       95.65946
H         96.56094       89.48695       94.44502
H         98.06208       88.41311       96.19522
H         97.63653       89.75786       97.32192
H        100.27776       89.63020       97.09388
H        100.90580       90.79228       95.90982
N         92.92121       88.17081       95.86973
C         91.63186       88.10753       95.18775
C         91.17561       86.67156       94.95324
O         90.23290       86.50917       94.18873
C         90.53295       88.90307       95.94664
C         90.34989       88.42787       97.39825
C         90.82450       90.40842       95.91634
H         93.02676       87.69044       96.77362
H         91.72808       88.55610       94.17394
H         89.56763       88.75640       95.41139
H         91.26674       88.61230       97.99746
H         89.51261       88.98062       97.87525
H         90.10918       87.34478       97.43146
H         90.89359       90.75913       94.86387
H         89.99762       90.96667       96.40570
H         91.77534       90.64383       96.43765
N         91.72507       85.59106       95.59279
C         91.23500       84.23240       95.38701
C         92.36987       83.25360       95.11110
O         93.53504       83.63051       95.14059
C         90.36792       83.78239       96.58044
C         91.17287       83.56368       97.83251
N         91.28859       82.32174       98.35320
O         91.73991       84.50214       98.37079
H         92.46533       85.72139       96.29292
H         90.56656       84.21036       94.49912
H         89.86355       82.83258       96.30324
H         89.56089       84.52441       96.76646
H         90.81832       81.51409       97.91773
H         91.87489       82.16415       99.18205
N         92.06809       81.96710       94.78671
C         93.06233       80.97563       94.37427
C         92.36649       79.77926       93.72158
O         91.15739       79.64025       93.86256
C         93.92695       80.49880       95.57524
C         95.15952       79.75644       95.11187
C         95.27680       78.36251       95.25267
C         96.20845       80.47341       94.51277
C         96.41370       77.69821       94.77530
C         97.34990       79.81174       94.05426
C         97.45396       78.42296       94.17312
O         98.55303       77.79936       93.70195
H         91.06572       81.73992       94.73186
H         93.68766       81.46845       93.59717
H         93.28945       79.85934       96.22723
H         94.27332       81.34739       96.20341
H         94.48097       77.78780       95.70340
H         96.14250       81.54912       94.40693
H         96.48344       76.62141       94.86811
H         98.15094       80.38012       93.59837
H         98.65979       76.83850       93.74295
N         93.05594       78.88499       92.95861
C         92.40435       77.75650       92.30720
C         93.04728       76.45677       92.77036
O         94.01602       76.03190       92.15572
C         92.45033       77.94540       90.77923
C         91.66079       76.85012       90.04485
C         91.64109       77.09874       88.56596
O         90.46838       77.28540       87.93040
O         92.68316       77.12466       87.93088
H         94.06495       79.02463       92.79822
H         91.32703       77.73444       92.54957
H         93.50443       77.97037       90.42549
H         91.98285       78.92787       90.54170
H         90.61400       76.83967       90.42123
H         92.11166       75.85365       90.23603
N         92.63256       75.78141       93.88460
C         91.54267       76.21994       94.75647
C         90.18187       76.07304       94.09590
O         90.06918       75.46187       93.04117
C         91.52941       75.41182       96.07302
C         92.80364       75.63110       96.90499
C         92.79027       74.87345       98.20462
O         93.83696       74.98834       99.04273
O         91.84995       74.15764       98.51380
H         93.16517       74.93704       94.14624
H         91.70922       77.28726       95.01314
H         91.40432       74.32987       95.84167
H         90.66751       75.73658       96.69583
H         92.89641       76.71301       97.13818
H         93.69834       75.31032       96.33233
N         89.08940       76.63144       94.68762
C         87.75611       76.50726       94.14317
H         87.03909       77.07329       94.77637
H         87.72056       76.91714       93.11203
H         87.45204       75.43931       94.13459
H         89.20798       77.17549       95.55580
Ca        91.51169       75.28163      101.36863
O         89.01257       73.86925      100.72728
H         89.35210       73.48038       99.88231
H         88.13909       74.26722      100.48633
O         94.42023       74.86210      102.13962
H         94.91893       75.66724      101.85083
H         95.06884       74.11986      102.05071
O         91.90146       74.50473      104.30663
H         92.70075       75.07274      104.44298
H         92.26744       73.61955      104.05665
O         89.99956       77.34912       99.75233
H         89.03747       77.14645       99.63776
H         90.35984       77.38631       98.83085
O         92.10163       72.27885      101.09112
H         91.18308       72.09199      101.40993
H         92.64822       72.31107      101.91584

Ca 1.0



