%chk=apoCaM-CA-Ng.loop2.water3.frame482.chk
%nprocshared=20
%mem=10GB
%nosave
#b3lyp/svp scf=(tight,noincore,xqc) Test 
#IOP(5/87=12) Density=Current Pop=(MK,readradii) iop(6/33=2) iop(6/42=6)

apoCaM-CA-Ng.loop2.water3.frame482 

   -2  1 
C         56.63411       71.13374       79.58686
C         58.09587       71.47175       79.61025
O         58.81516       70.96749       80.46063
H         56.03214       72.05780       79.71008
H         56.37787       70.66135       78.61487
H         56.37782       70.42717       80.40499
N         58.61150       72.31702       78.67636
C         60.02640       72.66148       78.61785
C         60.45290       73.45076       79.84585
O         59.96640       74.55675       80.03943
C         60.31503       73.48642       77.34328
C         61.76923       73.85324       77.22027
O         62.70794       72.89046       77.15046
O         62.10441       75.02663       77.18299
H         57.97233       72.69598       77.95935
H         60.61026       71.71646       78.54546
H         59.69849       74.41359       77.35386
H         60.02618       72.89382       76.44854
N         61.39838       72.95022       80.69326
C         61.98267       73.71446       81.78816
C         61.65717       73.09493       83.13271
O         61.91527       71.91861       83.34726
C         63.49619       73.79775       81.59553
H         61.75941       71.99795       80.52807
H         61.60825       74.76163       81.77690
H         63.94910       74.40277       82.41061
H         63.95221       72.78504       81.60114
H         63.72386       74.28991       80.62578
N         61.09975       73.87356       84.10116
C         60.73675       73.40767       85.43617
C         61.95741       72.92416       86.18822
O         62.90363       73.68486       86.34346
C         60.06201       74.54721       86.23877
C         58.73848       74.91040       85.62597
O         58.66009       75.28563       84.46761
O         57.61267       74.71685       86.32465
H         60.93500       74.86424       83.87203
H         60.00144       72.57552       85.34999
H         60.72291       75.43871       86.29277
H         59.87078       74.19036       87.27591
N         61.98941       71.66707       86.71410
C         63.14821       71.18843       87.45070
C         62.99826       69.80807       88.06078
O         64.03054       69.20232       88.31346
H         61.17190       71.05931       86.57221
H         63.40282       71.88800       88.27549
H         64.00747       71.16734       86.74399
N         61.78571       69.25894       88.38654
C         61.65718       67.92682       88.96840
C         60.88724       67.02154       88.02182
O         60.20690       67.50238       87.12527
C         60.98824       67.96814       90.35980
C         61.78148       68.75656       91.38054
N         61.94544       70.09687       91.26948
O         62.26463       68.17299       92.33960
H         60.91544       69.78484       88.22997
H         62.66304       67.46903       89.09501
H         60.90105       66.92025       90.72521
H         59.96210       68.38944       90.29033
H         61.52387       70.62678       90.49501
H         62.48308       70.61698       91.97903
N         61.05632       65.67443       88.10292
C         60.50576       64.74121       87.13505
C         59.03381       64.45104       87.32160
O         58.39300       65.00422       88.20470
H         61.70328       65.29971       88.81464
H         61.02214       63.76672       87.28197
H         60.72778       65.08156       86.10079
N         58.47311       63.47100       86.55618
C         57.17356       62.86916       86.84912
C         55.95884       63.68474       86.41333
O         54.87853       63.36406       86.88910
C         57.08943       61.41539       86.29595
C         57.20692       61.31001       84.76356
O         58.04988       60.59408       86.91574
H         59.09528       63.01245       85.87584
H         57.10708       62.77121       87.95696
H         56.09445       61.00399       86.57291
H         58.94571       60.84081       86.56764
H         56.42743       61.91095       84.26965
H         58.19245       61.65647       84.39255
H         57.08077       60.25229       84.45113
N         56.01996       64.69432       85.49528
C         54.83314       65.46041       85.08310
C         55.04189       66.94866       85.29443
O         56.12327       67.36319       85.68882
C         54.43125       65.16103       83.60180
C         55.58891       65.43078       82.60787
C         53.86689       63.73659       83.48225
C         55.15172       65.36611       81.14237
H         56.92633       64.91295       85.05613
H         53.95774       65.19889       85.71713
H         53.58923       65.82982       83.32851
H         56.41554       64.70704       82.77300
H         55.98127       66.45628       82.77847
H         54.63391       62.98201       83.71483
H         53.01889       63.60580       84.18861
H         53.46867       63.54159       82.46695
H         56.01549       65.60798       80.48831
H         54.79187       64.35536       80.86536
H         54.34733       66.10861       80.95091
N         54.01774       67.81486       85.02803
C         54.13113       69.25994       85.13190
C         53.09987       69.83584       86.11816
O         53.00363       71.04916       86.23324
C         53.99212       69.85153       83.70294
C         54.49073       71.27168       83.61533
O         54.50903       71.86181       82.54686
O         54.98457       71.85395       84.72062
H         53.11444       67.44211       84.70039
H         55.14644       69.52527       85.49931
H         52.94096       69.76681       83.34957
H         54.63962       69.26310       83.01515
N         52.32817       69.02962       86.90708
C         51.36711       69.54526       87.88133
C         50.17415       70.16938       87.16978
O         49.52765       69.45824       86.41293
C         50.91458       68.39375       88.81510
C         49.98537       68.83158       89.93042
C         50.43956       68.83958       91.26206
C         48.65530       69.21176       89.66572
C         49.58777       69.23269       92.29925
C         47.80759       69.60123       90.70536
C         48.27341       69.61406       92.02094
H         52.46223       68.00929       86.86231
H         51.88822       70.27502       88.53645
H         51.84386       67.97803       89.26548
H         50.43562       67.57086       88.24109
H         51.45464       68.54728       91.50028
H         48.25952       69.19710       88.66122
H         49.94671       69.23998       93.32015
H         46.78662       69.88882       90.48963
H         47.61417       69.91491       92.82467
N         49.77411       71.46428       87.38353
C         48.56099       72.03871       86.81544
C         48.72156       72.46457       85.36430
O         47.76772       72.99909       84.81580
C         48.29586       73.24334       87.72280
C         49.70177       73.71769       88.01771
C         50.42223       72.39680       88.28540
H         47.69571       71.34307       86.90002
H         47.59987       74.00465       87.30826
H         47.87116       72.87276       88.68423
H         50.10375       74.15824       87.07684
H         49.79769       74.47068       88.82727
H         51.50532       72.52777       88.07729
H         50.26221       72.04436       89.32818
N         49.87066       72.23889       84.66818
C         50.03891       72.58997       83.26582
C         49.89310       71.35586       82.38915
O         49.98154       71.49311       81.17650
C         51.41980       73.24328       83.06680
C         51.55638       74.57223       83.82090
C         52.94699       75.12627       83.70256
O         53.66092       75.37797       84.81534
O         53.43027       75.36743       82.60758
H         50.65002       71.74031       85.11777
H         49.24919       73.29954       82.93276
H         51.59976       73.43262       81.98553
H         52.18546       72.53269       83.43147
H         51.33103       74.42530       84.89833
H         50.83593       75.30661       83.40284
N         49.62735       70.12389       82.91347
C         49.42548       68.96037       82.08227
H         48.55207       69.12398       81.41554
H         50.33321       68.76436       81.47541
H         49.22011       68.07436       82.72084
H         49.54459       69.98879       83.92869
Ca        55.97379       73.81029       85.11396
O         56.73117       74.69326       81.18161
H         57.28931       74.11253       80.60738
H         56.78189       75.58394       80.75228
O         58.07288       72.30636       83.20921
H         58.65503       72.72396       82.52591
H         58.43401       71.39097       83.31876
O         56.28992       76.84707       83.33734
H         57.11244       77.39721       83.37201
H         55.57899       77.43968       83.68828

Ca 1.0



