%chk=apoCaM-CA-Ng.loop3.water3.frame578.chk
%nprocshared=20
%mem=10GB
%nosave
#b3lyp/svp scf=(tight,noincore,xqc) Test 
#IOP(5/87=12) Density=Current Pop=(MK,readradii) iop(6/33=2) iop(6/42=6)

apoCaM-CA-Ng.loop3.water3.frame578 

   0  1 
C         36.79250       -4.83456       71.97126
C         35.89820       -5.42127       70.91959
O         35.40474       -6.52684       71.09115
H         37.79369       -4.62810       71.53824
H         36.35465       -3.88091       72.33634
H         36.90494       -5.52710       72.83145
N         35.62947       -4.70437       69.79641
C         34.73207       -5.16349       68.74333
C         35.28904       -6.42327       68.08256
O         36.42296       -6.39612       67.62569
C         34.48600       -3.99764       67.75236
C         33.32993       -4.23895       66.82913
O         32.91487       -3.34401       66.11137
O         32.76418       -5.44965       66.77533
H         36.05640       -3.76763       69.71325
H         33.74994       -5.38826       69.20962
H         35.40414       -3.74401       67.17980
H         34.19619       -3.11365       68.35925
N         34.54271       -7.57053       68.02026
C         35.06676       -8.85031       67.52661
C         34.77575       -9.09366       66.05596
O         35.39437       -9.98932       65.49318
C         34.57624      -10.03425       68.40090
C         33.05808      -10.29835       68.25773
C         32.50358      -11.36835       69.20915
C         33.06828      -12.77403       68.96556
N         32.40909      -13.74819       69.83702
H         33.57648       -7.52838       68.36317
H         36.17565       -8.81263       67.61279
H         34.82404       -9.81425       69.46177
H         35.12613      -10.95255       68.10112
H         32.81891      -10.58243       67.20972
H         32.49888       -9.37628       68.49029
H         31.40265      -11.40658       69.05305
H         32.69140      -11.06359       70.26180
H         34.16086      -12.78535       69.16685
H         32.89860      -13.06409       67.90493
H         31.38374      -13.77875       69.62990
H         32.81406      -14.69630       69.66451
H         32.55509      -13.49334       70.84099
N         33.86402       -8.35410       65.36382
C         33.64976       -8.48104       63.92745
C         33.99330       -7.15915       63.21772
O         33.88397       -7.10604       62.00242
C         32.22200       -9.03848       63.65200
C         31.12427       -8.07938       63.98844
O         30.93274       -7.12594       63.25744
O         30.53251       -8.09085       65.19497
H         33.30012       -7.65787       65.86801
H         34.34152       -9.24335       63.50675
H         32.09529       -9.96579       64.25181
H         32.11053       -9.32012       62.58273
N         34.47176       -6.06802       63.91082
C         34.91928       -4.82458       63.29111
C         33.83765       -4.00562       62.61193
O         34.18458       -3.00484       62.00107
H         34.61017       -6.12230       64.92681
H         35.70499       -5.07263       62.54453
H         35.38538       -4.17704       64.06652
N         32.52841       -4.37976       62.62624
C         31.50267       -3.75483       61.80174
C         30.23300       -3.48787       62.59572
O         29.79355       -4.35518       63.33812
C         31.20891       -4.72298       60.63902
C         30.30590       -4.12525       59.58533
N         30.75997       -3.92980       58.32467
O         29.15598       -3.82215       59.86484
H         32.26665       -5.21984       63.14537
H         31.87663       -2.81483       61.33654
H         30.76826       -5.66935       61.01808
H         32.18260       -4.97526       60.16393
H         31.72529       -4.17908       58.06330
H         30.14542       -3.52342       57.60433
N         29.51092       -2.35588       62.36664
C         28.19307       -2.13007       62.93531
C         28.25377       -1.85464       64.41095
O         28.90651       -0.89441       64.79585
H         29.85974       -1.67020       61.67982
H         27.53287       -2.99503       62.70265
H         27.74364       -1.23369       62.45592
N         27.55178       -2.61714       65.29996
C         27.51427       -2.29773       66.72434
C         28.89475       -2.37761       67.36553
O         29.83572       -2.86486       66.75566
C         26.49943       -3.18954       67.47478
C         25.07061       -2.95200       67.03645
C         24.46882       -1.69579       67.23277
C         24.31614       -3.98552       66.45391
C         23.14218       -1.47656       66.85003
C         22.98803       -3.76337       66.07170
C         22.39693       -2.50683       66.26925
O         21.11703       -2.27901       65.91022
H         26.98710       -3.40385       64.94379
H         27.18605       -1.23901       66.81654
H         26.54222       -2.98732       68.56678
H         26.77990       -4.24820       67.31003
H         25.02258       -0.88581       67.68991
H         24.75190       -4.96429       66.29749
H         22.69154       -0.50476       67.00968
H         22.41821       -4.56884       65.62546
H         20.56356       -2.96451       65.50961
N         29.07831       -1.79010       68.58332
C         30.35437       -1.57976       69.26467
C         30.97111       -2.87441       69.76408
O         31.36900       -3.70775       68.96535
C         31.36838       -0.76579       68.39756
C         32.61993       -0.40978       69.24789
C         30.70160        0.50270       67.82980
C         33.71634        0.32502       68.47658
H         28.25321       -1.36357       69.03316
H         30.12340       -0.95161       70.15467
H         31.69344       -1.38665       67.53582
H         33.07830       -1.34313       69.63715
H         32.31724        0.21081       70.11942
H         30.37179        1.17443       68.64929
H         31.39199        1.05098       67.15861
H         29.82146        0.24199       67.20734
H         33.37104        1.31845       68.12714
H         34.58308        0.49424       69.14999
H         34.05196       -0.28210       67.60958
N         31.10202       -3.08356       71.10470
C         31.78488       -4.23053       71.68975
C         30.79651       -5.24879       72.23943
O         31.23135       -6.24682       72.79762
C         32.72893       -3.72590       72.79779
O         33.65076       -2.80102       72.28157
H         30.69155       -2.39558       71.75558
H         32.39291       -4.75548       70.92588
H         33.29593       -4.56994       73.24388
H         32.13964       -3.26655       73.62818
H         33.26129       -1.89609       72.41353
N         29.45065       -5.07625       72.09803
C         28.45197       -6.00378       72.61238
C         28.55307       -7.36771       71.93072
O         28.46306       -7.40813       70.71391
C         27.05534       -5.41652       72.36298
H         29.10518       -4.23437       71.61608
H         28.58624       -6.07734       73.70888
H         26.87696       -5.27846       71.27453
H         26.26430       -6.07404       72.77021
H         26.97398       -4.42662       72.86091
N         28.72604       -8.54548       72.60411
C         28.84133       -8.66501       74.05429
C         27.54960       -8.24416       74.75292
O         26.53039       -8.16063       74.08273
C         29.14979      -10.12599       74.42115
H         28.79535       -9.40554       72.03512
H         29.68982       -8.01912       74.36020
H         28.31165      -10.78498       74.10192
H         30.07563      -10.46221       73.90920
H         29.29743      -10.25804       75.50797
N         27.46607       -7.96158       76.08838
C         28.58067       -7.94675       77.02982
C         28.75793       -6.55242       77.60844
O         29.83929       -5.99561       77.47218
C         28.45109       -9.04934       78.11653
C         27.28453       -8.99237       79.11998
C         25.93771       -9.17020       78.48117
O         25.67009      -10.28023       77.76689
O         25.07311       -8.31990       78.62035
H         26.53758       -7.69685       76.44625
H         29.52832       -8.19302       76.51366
H         29.38816       -9.02278       78.71565
H         28.41806      -10.03861       77.61335
H         27.32961       -8.05579       79.71155
H         27.41812       -9.82950       79.83797
N         27.74243       -5.91156       78.25213
C         27.90333       -4.59407       78.82696
H         26.95073       -4.26835       79.29702
H         28.69270       -4.61695       79.60826
H         28.17989       -3.86342       78.03793
H         26.82056       -6.35890       78.33695
Ca        30.77445       -6.00781       65.94125
O         31.05734       -7.16055       69.09612
H         31.51838       -7.44290       69.92548
H         30.56757       -7.96778       68.79687
O         28.42501       -5.71916       68.50146
H         28.66137       -6.51062       67.95665
H         27.49936       -5.90108       68.80368
O         27.76425       -6.10410       65.10467
H         27.70985       -6.46442       64.18413
H         27.28835       -6.77009       65.66168

Ca 1.0



