%chk=apoCaM-CA-Ng.loop1.water3.frame1322.chk
%nprocshared=20
%mem=10GB
%nosave
#b3lyp/svp scf=(tight,noincore,xqc) Test 
#IOP(5/87=12) Density=Current Pop=(MK,readradii) iop(6/33=2) iop(6/42=6)

apoCaM-CA-Ng.loop1.water3.frame1322 

   0  1 
C         37.48264       38.87883       95.14522
C         38.67676       38.50153       95.96697
O         39.38519       39.38976       96.42031
H         36.56052       38.48738       95.61984
H         37.40355       39.98403       95.05457
H         37.58710       38.45000       94.12573
N         38.98260       37.18662       96.16722
C         40.18645       36.75298       96.87111
C         41.12528       36.10433       95.87724
O         41.62191       35.00508       96.09461
C         39.85456       35.87751       98.09957
C         39.18578       34.56832       97.76581
O         39.79036       33.40797       98.08517
O         38.08867       34.54494       97.23238
H         38.37449       36.47423       95.73817
H         40.73123       37.63808       97.25551
H         39.20026       36.45077       98.79076
H         40.80491       35.66175       98.63597
N         41.40072       36.77075       94.72712
C         42.31530       36.29502       93.70400
C         43.73534       36.30269       94.25176
O         44.35456       35.25140       94.21560
C         42.15723       37.09803       92.38802
C         40.70884       36.97596       91.86620
C         40.45852       37.79655       90.60055
C         38.97104       37.72030       90.21750
N         38.68368       38.53239       89.03783
H         40.92040       37.67014       94.57430
H         42.04102       35.24855       93.43257
H         42.85325       36.69046       91.62222
H         42.40337       38.16744       92.52982
H         40.00293       37.34846       92.63584
H         40.47106       35.90689       91.66985
H         41.09156       37.41508       89.77024
H         40.72206       38.85854       90.79812
H         38.35307       38.09175       91.06688
H         38.68652       36.66293       90.01840
H         39.22400       38.17640       88.21688
H         37.66118       38.47273       88.82617
H         38.93107       39.53184       89.22224
N         44.32826       37.38626       94.84836
C         43.74079       38.71043       95.04945
C         43.36943       38.93530       96.50809
O         43.60226       38.05969       97.33336
C         44.64541       39.80221       94.42851
C         46.12471       39.67146       94.70965
O         46.65549       39.76718       95.94500
O         46.87978       39.47035       93.77093
H         45.26899       37.23396       95.24787
H         42.77504       38.81088       94.53921
H         44.28872       40.81739       94.70072
H         44.52931       39.70746       93.32503
N         42.67415       40.05569       96.86686
C         42.11085       40.30593       98.18980
C         43.14557       40.65510       99.27412
O         44.03000       39.60251       99.45975
H         42.43411       40.73544       96.12764
H         41.49134       39.44149       98.50848
H         41.43353       41.18382       98.10737
N         42.44996       40.97851      100.53216
C         43.34704       41.23823      101.68418
C         42.60614       42.01043      102.78342
O         41.38710       42.10241      102.73078
C         43.85260       39.89234      102.30227
C         45.28322       39.52885      101.99031
O         46.00283       40.26655      101.33625
O         45.79095       38.38538      102.48776
H         41.92073       41.85887      100.32588
H         44.16982       41.89456      101.34315
H         43.16802       39.06894      102.00085
H         43.79823       39.91556      103.41135
N         43.25955       42.58554      103.84199
C         44.70943       42.64250      103.98552
C         45.34045       43.54668      102.94964
O         44.63233       44.20795      102.20634
H         42.69630       43.02807      104.58440
H         45.13934       41.62500      103.92613
H         44.97480       43.05004      104.98411
N         46.69548       43.61386      102.84547
C         47.38103       44.43143      101.84626
C         46.97544       44.01974      100.43537
O         46.89509       42.83243      100.16079
C         48.91472       44.34119      102.03544
C         49.66965       45.27115      101.07838
O         49.36168       43.02267      101.84668
H         47.25629       43.04592      103.49885
H         47.10505       45.49683      102.01179
H         49.15854       44.69110      103.06778
H         49.51516       42.62415      102.74222
H         49.33839       46.32225      101.22132
H         50.75869       45.21623      101.28453
H         49.49904       44.98283      100.01938
N         46.73598       44.97839       99.49061
C         46.32959       44.74961       98.10296
C         47.34897       43.89961       97.34861
O         47.44889       42.71409       97.62547
C         44.88962       44.15061       98.02349
C         43.85761       44.96171       98.85479
C         44.41499       44.00814       96.56521
C         43.69314       46.43141       98.45558
H         46.85968       45.96394       99.76918
H         46.29845       45.74644       97.61156
H         44.90494       43.12819       98.46157
H         44.15696       44.94047       99.91847
H         42.86614       44.46257       98.78671
H         44.39033       44.99188       96.05235
H         45.08934       43.33677       95.99446
H         43.39738       43.56216       96.53670
H         43.33916       46.52895       97.41014
H         42.93929       46.90514       99.11980
H         44.64434       46.98789       98.58086
N         48.11498       44.43534       96.34988
C         49.06561       43.64600       95.56642
C         50.49030       44.15783       95.74123
O         51.15998       44.47225       94.76768
C         48.60504       43.55302       94.08546
C         48.49761       44.90225       93.36422
O         47.34802       42.93307       94.02800
H         48.01290       45.43623       96.12745
H         49.09375       42.59694       95.93607
H         49.34269       42.93599       93.51839
H         47.50256       41.96957       94.19811
H         48.18347       44.72791       92.31318
H         47.73855       45.55160       93.84533
H         49.46550       45.43885       93.33834
N         51.04278       44.18471       96.98408
C         52.43601       44.51825       97.25162
C         53.09380       43.24463       97.75335
O         53.27655       43.07837       98.95098
C         52.51020       45.70570       98.24082
C         53.96182       46.14971       98.47664
O         51.78776       46.78521       97.70572
H         50.46041       43.90107       97.78472
H         52.96647       44.83841       96.32701
H         52.05040       45.39328       99.20593
H         51.58271       47.39844       98.45962
H         54.42664       46.47001       97.51905
H         53.98522       47.00743       99.18166
H         54.56990       45.33014       98.91105
N         53.41196       42.26631       96.85299
C         53.87475       40.92082       97.18662
C         52.72510       40.11730       97.75464
O         52.07368       40.56587       98.68519
C         55.13373       40.87374       98.07106
C         56.30930       41.60864       97.41103
C         57.63004       41.28473       98.11775
C         58.80423       42.00894       97.44628
N         60.07818       41.59342       98.03190
H         53.28182       42.47334       95.85059
H         54.16267       40.42382       96.23248
H         55.40101       39.79843       98.17731
H         54.95554       41.27479       99.09060
H         56.11401       42.70361       97.41886
H         56.40522       41.27209       96.35505
H         57.80055       40.18713       98.05009
H         57.57777       41.57223       99.19037
H         58.67604       43.10784       97.56566
H         58.81853       41.77351       96.35849
H         60.09010       41.79239       99.05820
H         60.22600       40.57027       97.86903
H         60.85486       42.12035       97.57119
N         52.39387       38.91632       97.20124
C         51.15256       38.22437       97.51834
C         49.97864       38.99664       96.92841
O         49.10187       39.35182       97.70123
C         51.14881       36.75286       97.04903
C         52.17170       35.91975       97.83583
C         52.11585       34.47572       97.43064
O         50.97509       33.77460       97.57991
O         53.10714       33.92570       96.97896
H         53.02614       38.50581       96.49835
H         51.02846       38.17742       98.62513
H         51.34271       36.65679       95.96330
H         50.13913       36.33030       97.25153
H         51.94420       35.98267       98.92278
H         53.19509       36.31934       97.66811
N         49.84526       39.33034       95.60633
C         50.75956       39.02875       94.52294
H         51.65050       38.46651       94.82445
H         50.22739       38.43287       93.75209
H         51.10282       39.97861       94.06199
H         49.01671       39.87360       95.33161
Ca        45.60886       40.02378       97.90034
O         46.31768       37.27901       99.28414
H         46.08986       37.24507       98.32113
H         45.44232       37.26295       99.74665
O         48.92453       39.05993      100.65867
H         49.87546       39.26512      100.84307
H         48.50716       38.99237      101.55347
O         49.58164       41.79300       99.26336
H         49.73494       41.73692       98.28781
H         50.33080       42.34821       99.59305

Ca 1.0



