%chk=apoCaM-CA-Ng.loop4.water3.frame432.chk
%nprocshared=20
%mem=10GB
%nosave
#b3lyp/svp scf=(tight,noincore,xqc) Test 
#IOP(5/87=12) Density=Current Pop=(MK,readradii) iop(6/33=2) iop(6/42=6)

apoCaM-CA-Ng.loop4.water3.frame432 

   -3  1 
C         72.39595       81.58143       79.43286
C         71.11784       81.76508       80.19372
O         70.56144       80.77092       80.63376
H         73.14742       81.09427       80.08980
H         72.21124       80.93198       78.55140
H         72.80409       82.55181       79.08246
N         70.60855       83.01351       80.41739
C         69.38390       83.27798       81.16635
C         69.43257       82.64673       82.54657
O         68.60642       81.81253       82.87556
C         68.10142       83.03978       80.32700
C         67.97021       81.71119       79.63913
O         67.88888       80.57121       80.34538
O         67.90172       81.66740       78.42026
H         71.13942       83.83006       80.07869
H         69.33005       84.37224       81.36903
H         68.08851       83.82194       79.53421
H         67.20859       83.21708       80.96668
N         70.37865       83.09780       83.42118
C         70.52340       82.76412       84.83750
C         69.27815       83.18685       85.61064
O         69.30907       84.24141       86.22939
C         70.97526       81.29752       85.10819
C         71.24833       81.03551       86.61827
C         72.20347       80.92193       84.26205
C         72.36956       81.88409       87.23902
H         71.03351       83.81253       83.06554
H         71.35204       83.41761       85.18803
H         70.16923       80.60396       84.79730
H         71.51355       79.96490       86.74973
H         70.31896       81.21351       87.20015
H         73.06317       81.59155       84.46670
H         72.50400       79.87482       84.47641
H         71.96264       80.98749       83.18066
H         73.33781       81.71703       86.72531
H         72.12423       82.96506       87.21307
H         72.50078       81.60111       88.30425
N         68.15355       82.41378       85.63290
C         66.90070       82.81573       86.25548
C         66.70380       82.17568       87.64022
O         66.55471       82.96379       88.56445
C         65.72721       82.61496       85.27273
C         65.78177       83.51260       84.06098
O         64.89206       83.44594       83.22784
O         66.78172       84.39847       83.88491
H         68.16960       81.50099       85.17009
H         66.91760       83.91192       86.45896
H         64.77388       82.83252       85.80141
H         65.71829       81.57767       84.89799
N         66.72091       80.84181       87.96394
C         66.94799       79.70302       87.09404
C         65.74455       79.34689       86.24111
O         64.72248       80.00820       86.35344
H         66.63313       80.61260       88.96700
H         67.13146       78.81352       87.73419
H         67.87674       79.87063       86.53118
N         65.73927       78.27688       85.38782
C         66.84698       77.33127       85.23559
C         68.13796       77.99508       84.78486
O         68.07356       79.07874       84.22375
C         66.45570       76.13212       84.32543
C         65.74262       76.48424       83.03113
O         64.58733       76.11695       82.88554
O         66.31799       77.17331       82.02487
H         64.86826       78.10424       84.86327
H         67.03610       76.93216       86.25303
H         65.74072       75.51983       84.91844
H         67.33376       75.48622       84.11259
N         69.37369       77.48269       85.08690
C         69.61844       76.24541       85.81832
C         70.16218       76.54954       87.19099
O         69.73586       77.53167       87.78355
H         70.20558       78.03782       84.83463
H         70.31245       75.59790       85.23983
H         68.70722       75.64155       85.96763
N         71.04598       75.70435       87.79725
C         71.55299       75.92619       89.15178
C         73.06285       76.15987       89.19054
O         73.53662       76.62640       90.21694
C         71.03343       74.83954       90.12499
C         71.21857       73.37920       89.68139
C         72.64979       72.99320       89.50947
N         73.50468       73.03268       90.55294
O         73.03961       72.62248       88.41475
H         71.34754       74.86225       87.28418
H         71.14336       76.88288       89.54404
H         69.93471       74.98143       90.22037
H         71.47094       75.00353       91.13356
H         70.66901       73.20935       88.73042
H         70.76648       72.70835       90.44313
H         73.19250       73.32985       91.48838
H         74.48134       72.75494       90.42083
N         73.86186       75.96410       88.10043
C         75.22793       76.48751       87.99703
C         76.30297       75.41309       87.87209
O         77.46275       75.78758       87.75071
C         75.30048       77.49346       86.80186
C         74.44227       78.73612       87.08030
C         74.87807       76.87455       85.45663
H         73.46889       75.49835       87.27487
H         75.50341       77.05202       88.91444
H         76.35071       77.84406       86.69711
H         74.79210       79.24072       88.00556
H         74.52853       79.46029       86.24171
H         73.37333       78.46267       87.20317
H         75.47588       75.97050       85.22033
H         73.80229       76.60544       85.45857
H         75.02581       77.61367       84.64166
N         76.02594       74.08009       87.90711
C         77.04445       73.04693       87.74882
C         76.82012       72.24480       86.47974
O         77.63840       71.37161       86.22900
C         77.04747       72.06218       88.94956
C         77.47153       72.66386       90.26778
N         78.70528       73.19495       90.42310
O         76.71584       72.62269       91.22558
H         75.05470       73.77806       88.02189
H         78.05786       73.49437       87.65511
H         77.76862       71.23968       88.74838
H         76.03954       71.60070       89.04083
H         79.37636       73.21393       89.64286
H         78.99660       73.57032       91.33827
N         75.76821       72.45787       85.62328
C         75.55754       71.58457       84.47181
C         74.50159       72.06865       83.48200
O         73.50445       72.66902       83.85306
C         75.25813       70.12604       84.92243
C         74.19625       70.01212       86.00504
C         74.56659       69.55207       87.28399
C         72.84984       70.34818       85.77445
C         73.62107       69.44323       88.30653
C         71.90443       70.24135       86.80125
C         72.28531       69.79047       88.06921
O         71.36443       69.70245       89.05037
H         75.10744       73.22915       85.78784
H         76.50701       71.57439       83.89086
H         76.19936       69.69947       85.32231
H         75.00251       69.48887       84.05071
H         75.59331       69.28158       87.49739
H         72.51793       70.68758       84.80701
H         73.93011       69.09332       89.28364
H         70.87357       70.51323       86.61211
H         71.59171       69.40796       89.94414
N         74.67734       71.72092       82.17082
C         73.76459       71.89358       81.04215
C         73.54301       73.31445       80.55257
O         73.10388       73.44285       79.41642
C         72.43472       71.14292       81.23063
C         72.66543       69.65851       81.55313
C         71.37263       68.89927       81.57190
O         70.69378       68.81970       80.56003
O         70.96689       68.28057       82.69654
H         75.53807       71.19962       81.94134
H         74.28092       71.40305       80.18314
H         71.86530       71.21602       80.27712
H         71.82988       71.61372       82.03551
H         73.15896       69.56961       82.54295
H         73.32732       69.19908       80.78730
N         73.82014       74.42724       81.28716
C         73.73237       75.75834       80.70097
C         74.84583       75.90664       79.69259
O         74.58108       76.23827       78.54518
C         73.83712       76.86642       81.76532
C         72.70045       76.86354       82.80106
C         71.33414       76.96828       82.19541
O         70.83760       76.01144       81.62247
O         70.61281       78.08985       82.33934
H         74.13559       74.34418       82.25941
H         72.75933       75.89529       80.18309
H         73.80982       77.85065       81.24599
H         74.80528       76.78996       82.30432
H         72.85794       77.74486       83.45574
H         72.72802       75.95404       83.43786
N         76.12721       75.62547       80.05472
C         77.22760       75.70538       79.12408
H         78.16296       75.37268       79.62214
H         77.03530       75.04182       78.25392
H         77.35302       76.75227       78.77899
H         76.32533       75.31086       81.01721
Ca        68.44645       77.83612       81.86139
O         65.81116       78.46980       79.40325
H         65.47052       79.39889       79.37595
H         65.08443       77.95436       79.83502
O         69.49506       77.99102       78.73747
H         69.93451       77.57619       79.52080
H         70.16101       77.90453       78.01026
O         65.90495       80.16749       82.30931
H         65.82039       81.14274       82.16470
H         64.98080       79.82282       82.23176

Ca 1.0



