%chk=apoCaM-CA-Ng.loop1.water3.frame1336.chk
%nprocshared=20
%mem=10GB
%nosave
#b3lyp/svp scf=(tight,noincore,xqc) Test 
#IOP(5/87=12) Density=Current Pop=(MK,readradii) iop(6/33=2) iop(6/42=6)

apoCaM-CA-Ng.loop1.water3.frame1336 

   0  1 
C         67.09133       54.12580       24.28091
C         67.70980       55.33162       24.91826
O         66.99274       56.28011       25.20365
H         66.00294       54.28405       24.11697
H         67.56977       53.93649       23.29641
H         67.23410       53.24606       24.93961
N         69.05967       55.38587       25.12375
C         69.72989       56.56821       25.66534
C         70.20617       57.48515       24.54494
O         71.28722       58.05148       24.63054
C         70.86735       56.17992       26.64448
C         72.04455       55.50584       25.97172
O         71.91852       54.43006       25.41000
O         73.25678       56.09281       26.00021
H         69.62028       54.58788       24.79829
H         68.98495       57.15659       26.24554
H         70.47011       55.51585       27.44084
H         71.23913       57.10820       27.13086
N         69.42950       57.66836       23.44294
C         69.79782       58.53361       22.33517
C         69.78077       59.98730       22.78500
O         70.81075       60.62904       22.63005
C         68.92955       58.25396       21.08030
C         69.08491       56.77560       20.65359
C         68.32229       56.42196       19.37498
C         68.43567       54.91005       19.10766
N         67.76021       54.53212       17.86848
H         68.54911       57.14931       23.36999
H         70.83405       58.27706       22.01372
H         69.28231       58.90736       20.25208
H         67.85846       58.47583       21.25828
H         68.70828       56.11605       21.46185
H         70.16226       56.54692       20.49341
H         68.74551       56.99662       18.52261
H         67.24878       56.68568       19.49239
H         67.97421       54.35694       19.95748
H         69.50633       54.61237       19.04271
H         66.75955       54.83416       17.89281
H         68.24606       54.96944       17.05239
H         67.79732       53.49170       17.76609
N         68.72528       60.60304       23.40416
C         67.42724       60.00643       23.73251
C         67.24985       59.87509       25.24387
O         68.08960       60.34347       25.99961
C         66.29897       60.82245       23.07734
C         66.38758       62.27765       23.43682
O         66.33489       62.66911       24.72322
O         66.56769       63.10596       22.56010
H         68.87610       61.57904       23.70479
H         67.34790       58.98429       23.34010
H         65.30539       60.42002       23.36817
H         66.39181       60.72583       21.97248
N         66.20673       59.14647       25.74552
C         66.08582       58.80295       27.15712
C         65.49729       59.89687       28.01348
O         65.09062       60.92288       27.49248
H         65.55963       58.69254       25.08325
H         67.07869       58.48622       27.54357
H         65.39931       57.93420       27.25764
N         65.41151       59.71973       29.36325
C         64.79262       60.66154       30.29958
C         63.75776       59.93962       31.17238
O         63.73537       58.71354       31.14733
C         65.90749       61.26202       31.18615
C         66.83568       62.12545       30.38417
O         66.40954       63.12257       29.82260
O         68.14429       61.82134       30.30305
H         65.83041       58.86050       29.75764
H         64.27916       61.47219       29.74570
H         66.47500       60.43789       31.67125
H         65.51300       61.89395       31.99617
N         62.87083       60.57543       32.00032
C         62.64371       62.01536       32.06047
C         61.95643       62.51176       30.81399
O         61.35499       61.71468       30.10932
H         62.27495       59.99288       32.60863
H         63.57081       62.57046       32.26246
H         61.96187       62.24992       32.90627
N         61.97161       63.84306       30.49894
C         61.29990       64.38045       29.30864
C         62.01838       63.91331       27.99972
O         62.77812       62.77836       28.21226
C         61.27444       65.93285       29.35256
C         60.58623       66.49214       30.61087
O         60.65063       66.45602       28.20635
H         62.46444       64.48040       31.14022
H         60.25067       64.01133       29.32954
H         62.32617       66.29588       29.36397
H         59.70547       66.15270       28.21382
H         61.09254       66.16535       31.54176
H         60.61963       67.60205       30.59039
H         59.52636       66.16547       30.65419
N         61.13896       63.83254       26.79861
C         61.47437       62.99716       25.59104
C         62.43176       63.67712       24.56395
O         63.82197       63.58445       24.74849
C         61.79963       61.49317       25.86130
C         60.65710       60.83596       26.67999
C         62.02138       60.73137       24.53639
C         61.05110       59.49351       27.29033
H         60.16182       63.61151       27.09788
H         60.52489       62.96911       25.00750
H         62.74857       61.41370       26.41241
H         59.75167       60.72806       26.04122
H         60.38279       61.46794       27.54619
H         61.11425       60.78125       23.89694
H         62.87336       61.16293       23.97065
H         62.27648       59.66912       24.71655
H         60.19018       59.08850       27.86313
H         61.33997       58.75098       26.52311
H         61.89768       59.64598       27.99516
N         62.00474       65.02881       24.23820
C         62.84823       65.74251       23.26260
C         62.49080       67.21662       23.28138
O         62.97357       67.93395       22.42247
C         62.81738       65.12503       21.82651
C         61.46079       65.19964       21.12754
O         63.22983       63.78411       21.85204
H         61.01375       65.00775       23.90302
H         63.91151       65.70846       23.58825
H         63.52582       65.70087       21.18328
H         64.21014       63.79051       21.99724
H         60.69524       64.61280       21.67270
H         61.12820       66.25361       21.03084
H         61.55805       64.77449       20.10433
N         61.67869       67.73458       24.25930
C         61.35537       69.14765       24.43923
C         62.63352       69.86085       24.89112
O         62.87455       69.98646       26.08368
C         60.19556       69.25094       25.47479
C         59.62147       70.66160       25.56771
O         59.15439       68.38805       25.08135
H         61.28554       67.09455       24.96246
H         60.97053       69.55918       23.48000
H         60.58455       68.93202       26.47298
H         58.72920       68.03900       25.90899
H         60.39562       71.39040       25.87735
H         59.20255       70.95962       24.58181
H         58.79562       70.67142       26.31184
N         63.58184       70.16485       23.96118
C         64.98867       70.46743       24.21168
C         65.71038       69.29245       24.85274
O         65.07428       68.43412       25.44467
C         65.24902       71.75249       25.00964
C         64.52019       72.96528       24.42780
C         65.06642       74.25434       25.04992
C         64.26098       75.47638       24.60068
N         64.88197       76.70970       25.08223
H         63.31853       70.10407       22.96955
H         65.44670       70.60404       23.20517
H         66.34730       71.93267       24.97918
H         64.95272       71.63277       26.07481
H         63.43199       72.85405       24.62972
H         64.67796       73.02038       23.32822
H         66.12659       74.36836       24.72961
H         65.03566       74.19488       26.15993
H         63.22760       75.39308       25.00618
H         64.20294       75.51084       23.49040
H         65.81939       76.82979       24.63285
H         64.27800       77.52218       24.82241
H         64.99215       76.68349       26.12193
N         67.06324       69.17946       24.73802
C         67.82595       68.08060       25.32513
C         67.28765       66.72586       24.86188
O         66.89998       65.95504       25.72810
C         69.34132       68.23240       25.05614
C         69.92224       69.50204       25.70289
C         71.38679       69.63861       25.40229
O         72.28348       69.66363       26.40614
O         71.77008       69.74770       24.24793
H         67.56001       69.89789       24.19093
H         67.70178       68.11936       26.43237
H         69.54249       68.27126       23.97227
H         69.87338       67.35228       25.48198
H         69.77108       69.45435       26.80305
H         69.41362       70.41077       25.32112
N         67.16006       66.33793       23.55946
C         67.53843       67.11586       22.40130
H         68.63375       67.24746       22.35822
H         67.25122       66.56602       21.47972
H         67.01464       68.09192       22.39252
H         66.73060       65.42048       23.37788
Ca        64.38983       63.44890       26.88768
O         63.71712       66.25158       26.49816
H         62.96033       66.61332       27.01939
H         64.50272       66.38323       27.08380
O         66.83030       65.87524       28.69994
H         66.29285       66.70508       28.65410
H         67.68797       66.15870       29.10457
O         68.54284       63.49783       27.04515
H         68.25092       63.01973       27.86039
H         69.32452       64.02980       27.33858

Ca 1.0



