%chk=apoCaM-CA-Ng.loop2.water5.frame747.chk
%nprocshared=20
%mem=10GB
%nosave
#b3lyp/svp scf=(tight,noincore,xqc) Test 
#IOP(5/87=12) Density=Current Pop=(MK,readradii) iop(6/33=2) iop(6/42=6)

apoCaM-CA-Ng.loop2.water5.frame747 

   -2  1 
C         81.58183      116.67192       -0.05456
C         81.62108      118.16928        0.07073
O         80.59002      118.80416       -0.09829
H         82.58516      116.22297        0.10631
H         80.88122      116.24796        0.69401
H         81.23798      116.39465       -1.07375
N         82.79190      118.80797        0.34761
C         82.91026      120.26126        0.42261
C         82.08526      120.84487        1.56181
O         81.89241      120.18665        2.57418
C         84.39610      120.64850        0.60710
C         84.62431      122.13496        0.62629
O         85.15068      122.72114        1.71874
O         84.33968      122.81563       -0.34623
H         83.64214      118.23481        0.46701
H         82.55517      120.68216       -0.54505
H         84.99447      120.21977       -0.22599
H         84.76736      120.21073        1.56028
N         81.65872      122.13899        1.48366
C         80.99828      122.85158        2.57853
C         79.61486      122.25605        2.88395
O         79.18801      121.40416        2.11594
C         80.91164      124.33651        2.18846
H         81.87406      122.65789        0.61822
H         81.66481      122.76952        3.45559
H         80.55571      124.98856        2.99599
H         81.92860      124.70553        1.93297
H         80.25512      124.46655        1.30207
N         78.81930      122.60184        3.95184
C         79.12368      123.56444        5.01831
C         80.36082      123.17825        5.82000
O         80.89908      122.09950        5.61763
C         77.90322      123.76861        5.95519
C         77.51677      122.55049        6.75519
O         77.13657      121.53161        6.20150
O         77.55360      122.59587        8.10053
H         77.90198      122.13289        3.98897
H         79.29265      124.54926        4.55804
H         77.02779      124.09540        5.35264
H         78.13053      124.59142        6.66640
N         80.88189      124.03380        6.74997
C         82.11693      123.75437        7.47443
C         83.31122      123.76150        6.53872
O         83.13206      124.03159        5.35898
H         80.40443      124.92786        6.93888
H         82.02366      122.77910        7.99545
H         82.28412      124.54891        8.23332
N         84.58476      123.49765        6.94688
C         85.02381      123.14242        8.29398
C         85.69598      121.76668        8.28522
O         86.38695      121.43898        9.23954
C         86.04736      124.20498        8.76049
C         85.42684      125.56611        8.93900
N         84.48272      125.77189        9.88721
O         85.79944      126.49783        8.24203
H         85.32387      123.54543        6.22577
H         84.18983      123.10859        9.02562
H         86.87489      124.25798        8.01713
H         86.48904      123.91952        9.73962
H         84.17516      125.00314       10.50075
H         84.07131      126.70689       10.02341
N         85.52816      120.90181        7.24376
C         86.24388      119.64545        7.09370
C         86.11972      118.68958        8.25951
O         87.14625      118.21603        8.72749
H         84.88090      121.14563        6.48020
H         87.32008      119.85968        6.91463
H         85.85420      119.13489        6.18588
N         84.90653      118.32332        8.75606
C         84.73346      117.26919        9.75848
C         83.84217      116.17385        9.18772
O         83.38870      116.30537        8.05790
C         84.20104      117.84031       11.09290
C         85.21280      118.80385       11.72642
O         82.97255      118.48915       10.89222
H         84.06625      118.78357        8.37943
H         85.70774      116.78175        9.98441
H         84.07423      116.99190       11.80458
H         82.48205      118.44610       11.75509
H         84.84024      119.15269       12.71272
H         86.18313      118.28519       11.89102
H         85.38424      119.68680       11.07794
N         83.57749      115.03818        9.89585
C         82.85123      113.90447        9.33225
C         81.51874      113.71693       10.03649
O         81.48159      113.48144       11.23646
C         83.72474      112.61575        9.40292
C         82.93043      111.37608        8.90166
C         85.01447      112.81681        8.58099
C         83.69025      110.05578        9.02887
H         83.94081      114.94612       10.85674
H         82.63886      114.08008        8.25450
H         84.00444      112.43950       10.46556
H         82.62107      111.51953        7.84550
H         82.01323      111.25790        9.51634
H         85.68967      111.94294        8.66886
H         84.77107      112.97686        7.50792
H         85.58572      113.69408        8.94918
H         84.58210      110.03440        8.37257
H         83.99494      109.89001       10.08383
H         83.02995      109.21923        8.71898
N         80.38017      113.73926        9.28915
C         79.04035      113.43691        9.76208
C         78.49188      112.18050        9.08302
O         77.38273      111.79219        9.42177
C         78.12374      114.62534        9.44077
C         78.56365      115.87571       10.14185
O         78.45984      115.96691       11.35477
O         79.08016      116.90164        9.43879
H         80.46460      113.95229        8.29287
H         79.04468      113.24624       10.85859
H         77.07204      114.41315        9.73264
H         78.14197      114.78934        8.34130
N         79.21484      111.46290        8.16357
C         78.77397      110.18038        7.62681
C         78.88344      110.15657        6.09597
O         79.58850      109.30557        5.57215
C         79.64948      109.12207        8.34193
C         79.30988      107.67272        8.10874
C         78.02264      107.18146        8.38521
C         80.30792      106.77994        7.67861
C         77.74002      105.82079        8.23061
C         80.02302      105.41926        7.53489
C         78.74020      104.93984        7.81054
H         80.16375      111.76231        7.90420
H         77.71566      109.98593        7.89784
H         79.53509      109.28707        9.43614
H         80.71538      109.31457        8.09226
H         77.24114      107.84503        8.73147
H         81.31326      107.13039        7.47802
H         76.74812      105.44713        8.44876
H         80.80049      104.73490        7.22043
H         78.52328      103.88482        7.70546
N         78.21899      111.05792        5.29660
C         78.29472      111.09066        3.83298
C         79.69878      111.15947        3.26202
O         79.88372      110.85938        2.09070
C         77.60874      112.41868        3.48094
C         76.55853      112.52855        4.55473
C         77.33088      112.08709        5.79651
H         77.75354      110.19842        3.44632
H         78.31869      113.26217        3.66641
H         77.25000      112.49521        2.43234
H         76.07282      113.52362        4.64461
H         75.78258      111.76438        4.32459
H         77.94765      112.90896        6.22115
H         76.60273      111.71140        6.54584
N         80.71407      111.65611        4.01504
C         82.07342      111.83245        3.54423
C         82.64906      110.46747        3.22960
O         83.12311      110.26340        2.12036
C         82.94463      112.59068        4.58226
C         82.66541      114.11949        4.69670
C         81.45115      114.59137        5.46280
O         81.25355      115.91027        5.64187
O         80.70021      113.81726        6.01510
H         80.50537      111.89849        4.97984
H         82.08649      112.45028        2.61768
H         83.98799      112.52770        4.20154
H         82.93114      112.09919        5.57773
H         82.65396      114.56496        3.67940
H         83.52621      114.55802        5.24589
N         82.57824      109.46004        4.14244
C         83.03301      108.12023        3.84325
H         84.12707      108.12150        3.65934
H         82.80639      107.44458        4.69532
H         82.50528      107.73420        2.94347
H         82.14556      109.63555        5.06152
Ca        79.92943      116.58741        7.35542
O         83.30834      117.85692        5.35219
H         83.88000      117.11793        5.67854
H         82.98090      117.54094        4.47286
O         77.61288      117.30716        5.57111
H         77.20408      116.41944        5.72913
H         77.34846      117.54479        4.64711
O         79.93602      119.05225        4.92010
H         79.35319      119.54994        4.29415
H         80.64544      118.66649        4.34832
O         78.82926      119.45598        8.18210
H         79.10049      119.68135        9.10737
H         79.07175      120.25494        7.65217
O         81.80611      119.54720        7.67562
H         81.91996      120.30226        8.30538
H         81.47688      119.96596        6.84373

Ca 1.0



