%chk=apoCaM-CA-Ng.loop2.water4.frame589.chk
%nprocshared=20
%mem=10GB
%nosave
#b3lyp/svp scf=(tight,noincore,xqc) Test 
#IOP(5/87=12) Density=Current Pop=(MK,readradii) iop(6/33=2) iop(6/42=6)

apoCaM-CA-Ng.loop2.water4.frame589 

   -2  1 
C         54.63928       17.57129       11.25093
C         53.30173       17.87153       11.86226
O         53.04700       17.42532       12.97184
H         55.44404       17.94822       11.91584
H         54.75314       16.47392       11.12584
H         54.74921       18.05267       10.25622
N         52.38032       18.61091       11.18408
C         51.06551       18.92173       11.73084
C         51.21599       19.84468       12.92972
O         51.73606       20.93926       12.76764
C         50.18626       19.57460       10.63814
C         48.75625       19.81272       11.05385
O         48.31441       19.47378       12.28093
O         47.97640       20.30598       10.25514
H         52.61638       18.93918       10.23423
H         50.57291       17.96602       12.01958
H         50.16284       18.89633        9.75657
H         50.63817       20.53953       10.31940
N         50.76101       19.47539       14.16199
C         50.85167       20.35117       15.33033
C         52.30096       20.56457       15.76798
O         53.13597       19.74843       15.40382
C         50.02478       19.76026       16.47957
H         50.29159       18.56142       14.25553
H         50.39372       21.30648       15.05363
H         50.42714       18.76917       16.77502
H         50.01377       20.40881       17.37313
H         48.97114       19.63741       16.14838
N         52.71205       21.60496       16.56419
C         51.86524       22.71582       17.01131
C         51.37139       23.54824       15.83592
O         51.89389       23.40915       14.74080
C         52.59383       23.59030       18.06265
C         53.92294       24.12974       17.60060
O         53.99530       24.86529       16.63236
O         55.04631       23.80357       18.26893
H         53.70402       21.60609       16.84964
H         50.97974       22.30188       17.52403
H         52.77853       22.96433       18.96311
H         51.94198       24.43577       18.37133
N         50.30758       24.39153       15.98244
C         49.71229       25.13161       14.87258
C         49.13638       24.20977       13.80365
O         49.21490       23.00289       13.95577
H         49.87790       24.49296       16.91481
H         50.47635       25.79784       14.42205
H         48.88528       25.75812       15.27000
N         48.51821       24.66313       12.67775
C         48.25668       26.05725       12.34899
C         48.93609       26.46528       11.04069
O         48.74345       27.59529       10.61552
C         46.72802       26.23316       12.24735
C         46.04906       25.83211       13.53783
N         45.19060       24.78496       13.57311
O         46.28834       26.45131       14.56381
H         48.16463       23.95474       12.01319
H         48.63354       26.73839       13.14031
H         46.35135       25.60138       11.41266
H         46.46983       27.28995       12.02139
H         44.98244       24.24010       12.72363
H         44.74017       24.50698       14.45792
N         49.76290       25.61587       10.35944
C         50.45683       25.95688        9.12525
C         51.39377       27.13197        9.29990
O         51.34248       28.05611        8.50115
H         49.93775       24.66969       10.72481
H         49.72480       26.15989        8.31240
H         51.06604       25.07864        8.81978
N         52.24911       27.17681       10.35886
C         53.14970       28.29048       10.64417
C         54.53975       27.76594       10.99326
O         54.68410       27.00289       11.93704
C         52.55571       29.16611       11.77097
C         51.40791       30.02880       11.21706
O         52.09829       28.35138       12.81959
H         52.19564       26.41800       11.05066
H         53.25584       28.94689        9.75315
H         53.34199       29.85975       12.14346
H         51.64412       28.93512       13.48150
H         50.59204       29.40268       10.80766
H         50.99244       30.67886       12.01437
H         51.79157       30.68890       10.40851
N         55.60994       28.13056       10.22922
C         56.96988       27.62106       10.40830
C         57.62245       28.18843       11.66761
O         57.68957       29.39877       11.82758
C         57.85803       27.94593        9.16017
C         59.29950       27.38293        9.35361
C         57.22417       27.35181        7.88012
C         60.25917       27.70292        8.20566
H         55.43140       28.76693        9.44004
H         56.92825       26.50868       10.46108
H         57.91780       29.05121        9.04457
H         59.26118       26.27949        9.49123
H         59.75270       27.82575       10.26526
H         57.17277       26.24425        7.94857
H         56.20108       27.73420        7.69991
H         57.80240       27.63414        6.97911
H         60.32513       28.80091        8.05407
H         61.27008       27.31611        8.45473
H         59.94542       27.21451        7.26170
N         58.23583       27.33841       12.53562
C         59.04617       27.72612       13.68382
C         60.49246       27.31480       13.44282
O         61.35786       28.17205       13.54495
C         58.51204       27.04066       14.95171
C         57.19615       27.61878       15.38586
O         57.14834       28.75515       15.83017
O         56.06577       26.89491       15.29758
H         58.17998       26.33802       12.33027
H         59.03569       28.82861       13.84358
H         59.22227       27.17020       15.79868
H         58.41481       25.94992       14.76337
N         60.83104       26.02396       13.13651
C         62.21110       25.57575       12.93214
C         62.23321       24.05182       12.73734
O         62.70671       23.59442       11.70216
C         62.84197       26.29352       11.69616
C         64.33564       26.09533       11.47288
C         65.18961       25.44157       12.38929
C         64.89444       26.61850       10.29195
C         66.55932       25.32611       12.12387
C         66.26167       26.49139       10.02834
C         67.09423       25.84870       10.94510
H         60.07718       25.32721       13.07402
H         62.78734       25.83658       13.84526
H         62.70192       27.38892       11.75763
H         62.28898       25.95111       10.79269
H         64.82108       25.02853       13.31624
H         64.26628       27.12495        9.56931
H         67.20937       24.83316       12.83570
H         66.67659       26.89548        9.11369
H         68.15413       25.75764       10.74286
N         61.73540       23.17973       13.67043
C         61.77049       21.73023       13.52110
C         61.06229       21.17781       12.29004
O         61.22082       19.99540       12.02216
C         61.08598       21.21446       14.79071
C         61.46008       22.28319       15.79574
C         61.25065       23.55802       14.98178
H         62.84621       21.44394       13.48811
H         59.97946       21.27970       14.66411
H         61.35017       20.17187       15.06890
H         60.90013       22.25131       16.75398
H         62.54858       22.17553       16.00992
H         60.17088       23.81073       14.90482
H         61.82385       24.38566       15.44903
N         60.25532       21.95261       11.50429
C         59.67841       21.45823       10.26171
C         60.80825       21.33920        9.26244
O         61.07584       20.24809        8.77844
C         58.56563       22.36637        9.66289
C         57.23789       22.41599       10.45641
C         57.20350       23.34852       11.63337
O         56.06907       23.48781       12.34029
O         58.15421       24.04944       11.91055
H         60.09655       22.92432       11.77009
H         59.20701       20.46443       10.43766
H         58.29816       21.89098        8.69204
H         58.92101       23.39428        9.43221
H         56.94602       21.38981       10.76534
H         56.45279       22.79973        9.76900
N         61.53690       22.44250        8.93218
C         62.65844       22.39328        8.02348
H         63.43542       21.70716        8.42227
H         62.32476       22.04539        7.02395
H         63.10245       23.40716        7.92166
H         61.29946       23.35293        9.35569
Ca        55.95142       25.16037       13.85535
O         52.76498       24.19586       12.09498
H         52.53773       23.82506       11.20606
H         51.90602       24.54401       12.44328
O         56.92535       22.57219       15.33537
H         56.49545       22.86026       16.17891
H         57.59161       23.27810       15.14196
O         52.90542       26.71081       14.92555
H         53.63657       27.17770       14.45077
H         52.79890       27.21501       15.77060
O         54.56791       21.74798       13.85612
H         54.69800       20.96077       13.27090
H         53.80978       22.23393       13.44952

Ca 1.0



