%chk=apoCaM-CA-Ng.loop3.water2.frame529.chk
%nprocshared=20
%mem=10GB
%nosave
#b3lyp/svp scf=(tight,noincore,xqc) Test 
#IOP(5/87=12) Density=Current Pop=(MK,readradii) iop(6/33=2) iop(6/42=6)

apoCaM-CA-Ng.loop3.water2.frame529 

   0  1 
C         64.67770        0.41271       73.32325
C         64.12848       -0.54516       74.33670
O         63.31584       -1.39063       73.98935
H         65.77923        0.28063       73.25652
H         64.23771        0.22577       72.32098
H         64.45478        1.45500       73.63115
N         64.56615       -0.48578       75.62315
C         64.15635       -1.44172       76.64108
C         62.67576       -1.33119       76.94828
O         62.23348       -0.29006       77.41488
C         65.00198       -1.24182       77.91188
C         64.86230       -2.35678       78.89856
O         65.57089       -2.31007       80.04231
O         64.14645       -3.31968       78.66571
H         65.27142        0.22936       75.86215
H         64.37341       -2.45455       76.25512
H         64.74747       -0.27301       78.39244
H         66.07076       -1.21587       77.63116
N         61.84670       -2.38167       76.69188
C         60.41291       -2.34167       76.94813
C         60.16862       -2.29789       78.44875
O         59.56607       -1.35258       78.93563
C         59.74252       -3.57042       76.29236
C         58.21708       -3.44794       76.14015
C         57.67181       -4.66200       75.36755
C         56.20906       -4.49243       74.94688
N         55.76292       -5.65126       74.16985
H         62.25037       -3.22940       76.26211
H         60.00186       -1.43775       76.44406
H         60.01817       -4.49579       76.83686
H         60.14637       -3.65112       75.25817
H         58.01045       -2.52904       75.54887
H         57.71380       -3.35979       77.12722
H         57.76770       -5.57162       75.99644
H         58.26846       -4.79766       74.43798
H         56.11494       -3.57965       74.31697
H         55.56502       -4.37277       75.84493
H         56.36162       -5.76850       73.31910
H         55.81374       -6.51832       74.75255
H         54.77458       -5.50349       73.86348
N         60.64378       -3.30470       79.24002
C         60.49120       -3.35360       80.69209
C         61.15240       -2.15532       81.37265
O         60.45576       -1.39573       82.03225
C         60.94848       -4.74491       81.24717
C         62.28103       -5.30424       80.75846
O         63.44711       -4.71984       81.08105
O         62.29545       -6.31347       80.07213
H         61.13413       -4.08181       78.77528
H         59.40549       -3.28899       80.93472
H         60.17348       -5.46832       80.90931
H         60.91798       -4.73639       82.35855
N         62.48341       -1.92284       81.25655
C         63.20000       -0.81936       81.86799
C         64.21063       -1.29044       82.90029
O         64.99971       -0.46717       83.33678
H         63.03248       -2.55751       80.68699
H         62.51927       -0.09239       82.35968
H         63.73422       -0.28165       81.05380
N         64.21617       -2.57426       83.38140
C         65.14474       -3.04838       84.41056
C         65.91534       -4.26959       83.92045
O         65.59310       -4.80171       82.87942
C         64.35437       -3.42033       85.68347
C         63.58260       -2.25157       86.25390
N         63.83672       -1.79892       87.50340
O         62.70556       -1.71872       85.58965
H         63.50308       -3.23779       83.05472
H         65.88313       -2.25612       84.66020
H         65.06052       -3.80330       86.45053
H         63.63347       -4.23480       85.44945
H         64.56310       -2.23588       88.08862
H         63.30121       -1.00740       87.89002
N         66.95212       -4.78083       84.64146
C         67.70855       -5.96562       84.24428
C         68.43988       -5.78933       82.92552
O         69.16135       -4.81150       82.78590
H         67.21758       -4.31641       85.52215
H         67.03964       -6.85201       84.21109
H         68.47726       -6.15452       85.02464
N         68.35500       -6.73423       81.93434
C         69.11199       -6.63424       80.68382
C         68.38320       -5.72692       79.64974
O         67.81976       -4.60635       80.24479
C         69.34743       -8.01698       80.01775
C         70.37465       -8.90827       80.67994
C         71.56680       -9.20583       79.98938
C         70.15942       -9.48751       81.94155
C         72.51895      -10.06089       80.54423
C         71.11488      -10.35083       82.49331
C         72.29659      -10.64102       81.79398
O         73.22008      -11.47893       82.30650
H         67.79833       -7.58237       82.11076
H         70.11294       -6.19878       80.90471
H         69.71362       -7.82891       78.98574
H         68.39740       -8.57512       79.91694
H         71.76275       -8.78066       79.01222
H         69.25110       -9.29591       82.49294
H         73.42669      -10.27913       79.99485
H         70.93216      -10.80146       83.46025
H         73.10160      -11.91713       83.16073
N         69.28502       -5.40036       78.51665
C         69.02551       -4.25644       77.61333
C         67.69409       -4.36056       76.88699
O         66.65577       -4.31073       77.52754
C         69.16784       -2.84567       78.29185
C         69.02539       -1.67571       77.27267
C         70.47784       -2.70046       79.08761
C         70.10504       -1.59757       76.18955
H         70.28439       -5.36474       78.82309
H         69.83093       -4.31003       76.85128
H         68.33839       -2.69958       79.01122
H         69.03288       -0.71470       77.83265
H         68.04695       -1.74602       76.75854
H         70.51582       -3.42735       79.92449
H         71.36333       -2.86152       78.43884
H         70.53999       -1.68759       79.54007
H         69.89555       -0.72478       75.53537
H         71.11004       -1.45493       76.63464
H         70.10499       -2.50210       75.55042
N         67.66203       -4.37405       75.52073
C         66.43508       -4.13307       74.76517
C         65.37036       -5.21213       74.90913
O         64.23259       -4.94336       74.54656
C         66.73621       -3.89398       73.27599
O         67.59354       -2.79203       73.11892
H         68.55635       -4.40892       75.00935
H         66.02164       -3.18465       75.14903
H         65.79598       -3.66732       72.72886
H         67.16902       -4.81082       72.81161
H         68.51602       -3.14460       73.02032
N         65.65569       -6.46473       75.36173
C         64.63988       -7.51158       75.44990
C         63.65808       -7.22375       76.57856
O         64.11948       -6.97502       77.68082
C         65.29678       -8.87967       75.66131
H         66.63313       -6.69958       75.59055
H         64.13384       -7.58902       74.48030
H         64.52418       -9.67650       75.68247
H         65.99047       -9.09431       74.82047
H         65.86647       -8.92538       76.60263
N         62.29780       -7.25719       76.44888
C         61.55137       -7.58269       75.23729
C         61.86751       -8.99437       74.76073
O         61.70415       -9.91055       75.55524
C         60.04746       -7.51531       75.52554
H         61.75184       -7.04975       77.30162
H         61.75490       -6.80398       74.48410
H         59.45744       -7.72624       74.60909
H         59.75603       -8.24280       76.31438
H         59.79435       -6.50429       75.87824
N         62.29885       -9.29913       73.49921
C         62.48849       -8.34508       72.41036
C         63.62023       -8.81260       71.51706
O         64.61212       -8.10496       71.40004
C         61.16221       -8.13494       71.65690
C         61.26674       -7.01107       70.61590
C         59.93785       -6.75263       69.96755
O         59.35091       -5.54654       70.09263
O         59.38487       -7.62895       69.32249
H         62.44563      -10.29922       73.29016
H         62.79880       -7.36090       72.80097
H         60.38742       -7.83686       72.39552
H         60.83365       -9.08337       71.17893
H         62.01040       -7.27402       69.83410
H         61.60129       -6.07916       71.12338
N         63.55435      -10.00866       70.87077
C         64.64080      -10.49370       70.04902
H         65.56115      -10.59625       70.66367
H         64.38317      -11.48891       69.62936
H         64.82992       -9.78795       69.21301
H         62.71732      -10.60172       70.97272
Ca        65.57161       -5.13485       80.32282
O         66.46292       -7.61833       78.69215
H         67.15096       -7.59624       77.97977
H         66.28694       -8.57954       78.84790
O         65.06470       -7.92541       81.70185
H         65.34311       -8.67996       81.12500
H         65.40241       -8.16573       82.60081

Ca 1.0



