%chk=apoCaM-CA-Ng.loop2.water2.frame838.chk
%nprocshared=20
%mem=10GB
%nosave
#b3lyp/svp scf=(tight,noincore,xqc) Test 
#IOP(5/87=12) Density=Current Pop=(MK,readradii) iop(6/33=2) iop(6/42=6)

apoCaM-CA-Ng.loop2.water2.frame838 

   -2  1 
C         49.85581      -15.18905       96.03221
C         48.72503      -16.14605       95.80015
O         48.24492      -16.74885       96.74943
H         50.74729      -15.51603       95.45908
H         49.55617      -14.17402       95.69236
H         50.11459      -15.13646       97.11113
N         48.21421      -16.29226       94.54687
C         47.05815      -17.12500       94.23742
C         45.82538      -16.23890       94.02258
O         44.76164      -16.76015       93.72273
C         47.40309      -17.99615       93.00650
C         46.42044      -19.10031       92.69946
O         46.61481      -19.81763       91.73133
O         45.36007      -19.34563       93.49344
H         48.61479      -15.71951       93.78614
H         46.83615      -17.80120       95.09225
H         48.38262      -18.49218       93.18401
H         47.50718      -17.33474       92.11829
N         45.88696      -14.88612       94.21860
C         44.75532      -13.97961       94.10559
C         45.10159      -12.89095       93.09633
O         46.13901      -12.26760       93.27896
C         44.49357      -13.35158       95.47782
H         46.77402      -14.44847       94.50304
H         43.83641      -14.52990       93.84568
H         45.38435      -12.79411       95.83953
H         43.63089      -12.65480       95.42377
H         44.25490      -14.14822       96.21538
N         44.33132      -12.54690       92.02081
C         43.00313      -13.06667       91.70659
C         42.78579      -13.17166       90.20527
O         43.64897      -12.77697       89.43497
C         41.92554      -12.20361       92.40688
C         42.01806      -10.72417       92.11930
O         40.96503      -10.04991       91.61877
O         43.02137      -10.10199       92.42988
H         44.66948      -11.75169       91.45590
H         42.89934      -14.10777       92.06038
H         42.04893      -12.32410       93.50429
H         40.91203      -12.57486       92.14673
N         41.66347      -13.78343       89.72799
C         41.40059      -14.01166       88.31559
C         39.94565      -13.74458       87.98674
O         39.25034      -14.70717       87.69407
H         41.00300      -14.19425       90.40597
H         41.58437      -15.09283       88.13038
H         42.08704      -13.45209       87.64937
N         39.35782      -12.51444       88.03461
C         40.04379      -11.25731       88.30226
C         40.88072      -10.86679       87.08611
O         40.31540      -10.63732       86.02550
C         38.97543      -10.18111       88.63015
C         39.50934       -8.83622       89.03736
N         38.65180       -7.85017       89.38749
O         40.70920       -8.63010       89.07039
H         38.33753      -12.48365       87.87314
H         40.67220      -11.37901       89.20985
H         38.36716      -10.55594       89.48321
H         38.30039      -10.04389       87.75745
H         37.63388       -8.01059       89.37783
H         39.00417       -6.92667       89.67731
N         42.24179      -10.81760       87.15879
C         43.10152      -10.54241       86.01371
C         43.18512       -9.07588       85.63193
O         43.86147       -8.77277       84.65982
H         42.69369      -11.06879       88.04427
H         42.76900      -11.15911       85.14995
H         44.13835      -10.85470       86.26365
N         42.56207       -8.10991       86.36052
C         42.61923       -6.68384       86.07213
C         43.21002       -5.93672       87.25817
O         42.71406       -6.06802       88.36858
C         41.20534       -6.14914       85.74616
C         40.70437       -6.69529       84.40890
O         40.28609       -6.49923       86.74956
H         42.01440       -8.38870       87.17529
H         43.25384       -6.47760       85.18205
H         41.24930       -5.03962       85.62754
H         40.30908       -5.78237       87.43236
H         41.39658       -6.39436       83.59264
H         40.63313       -7.80281       84.43323
H         39.70110       -6.27516       84.18512
N         44.26493       -5.09376       87.07072
C         44.84328       -4.26467       88.12859
C         43.76728       -3.32370       88.64889
O         43.22546       -2.56918       87.85238
C         46.05709       -3.44666       87.56770
C         46.64407       -2.41613       88.57162
C         47.17589       -4.37614       87.05039
C         47.24185       -3.01879       89.84152
H         44.63860       -5.00626       86.11485
H         45.20943       -4.91832       88.95007
H         45.69481       -2.85035       86.69968
H         45.85828       -1.68726       88.86573
H         47.44308       -1.83728       88.05804
H         47.56124       -5.03023       87.85878
H         46.82429       -5.03349       86.23165
H         48.01469       -3.77275       86.64230
H         47.65492       -2.20152       90.46362
H         46.46368       -3.54864       90.41973
H         48.07592       -3.71180       89.61433
N         43.42340       -3.30017       89.97397
C         42.39972       -2.39629       90.50308
C         43.01296       -1.30907       91.37100
O         42.33699       -0.31674       91.61488
C         41.34780       -3.13862       91.35401
C         40.99029       -4.50883       90.86231
O         40.48658       -4.69065       89.76658
O         41.26060       -5.53818       91.69137
H         43.91682       -3.92493       90.62463
H         41.88303       -1.90422       89.65033
H         40.44163       -2.50472       91.47380
H         41.77694       -3.29795       92.36892
N         44.24948       -1.45077       91.93831
C         44.86301       -0.42890       92.77334
C         46.14808       -0.95555       93.41766
O         47.08514       -1.24734       92.68567
C         45.19945        0.80341       91.90085
C         46.00189        1.83517       92.65225
C         47.32357        2.10886       92.25876
C         45.45635        2.51276       93.75376
C         48.08914        3.04126       92.95993
C         46.22589        3.44945       94.45121
C         47.54126        3.71189       94.05557
H         44.77336       -2.32562       91.80156
H         44.14388       -0.13953       93.56656
H         44.28040        1.27464       91.49539
H         45.79125        0.44101       91.03006
H         47.76671        1.59167       91.41604
H         44.44062        2.31404       94.07182
H         49.10818        3.23968       92.65398
H         45.80402        3.97004       95.30047
H         48.13745        4.43354       94.59775
N         46.30601       -1.06235       94.77431
C         47.57471       -1.37373       95.41560
C         48.00030       -2.82916       95.29728
O         49.05381       -3.14872       95.83068
C         47.34909       -0.94006       96.86804
C         45.88732       -1.26704       97.06817
C         45.27879       -0.77217       95.75754
H         48.39594       -0.74656       95.00097
H         48.05590       -1.36620       97.61197
H         47.43074        0.17096       96.91399
H         45.80079       -2.37713       97.10524
H         45.41973       -0.84166       97.98142
H         44.33082       -1.32222       95.57383
H         45.10174        0.32530       95.77044
N         47.28039       -3.76401       94.60668
C         47.75114       -5.14194       94.46192
C         49.06551       -5.25069       93.68427
O         49.60716       -6.34706       93.62832
C         46.66883       -6.05567       93.83877
C         46.27104       -5.69198       92.39932
C         45.24733       -6.66419       91.88504
O         44.14024       -6.27681       91.55077
O         45.54715       -7.97352       91.79290
H         46.37326       -3.50102       94.20198
H         47.93634       -5.53490       95.48674
H         45.76220       -6.01982       94.48205
H         47.04895       -7.10173       93.85085
H         47.15748       -5.72812       91.73091
H         45.84791       -4.66722       92.37268
N         49.65086       -4.18024       93.07061
C         50.92293       -4.28753       92.38918
H         51.70713       -4.61889       93.10393
H         50.85025       -5.01349       91.55278
H         51.21902       -3.29749       91.98057
H         49.20274       -3.25445       93.08083
Ca        41.17890       -7.79146       91.59095
O         41.31132       -6.88913       94.45436
H         40.52567       -7.48201       94.34360
H         42.09193       -7.48738       94.33767
O         44.26371       -9.12666       89.26105
H         45.23642       -8.95358       89.19880
H         44.20072      -10.03167       89.65657

Ca 1.0



