%chk=apoCaM-CA-Ng.loop2.water4.frame509.chk
%nprocshared=20
%mem=10GB
%nosave
#b3lyp/svp scf=(tight,noincore,xqc) Test 
#IOP(5/87=12) Density=Current Pop=(MK,readradii) iop(6/33=2) iop(6/42=6)

apoCaM-CA-Ng.loop2.water4.frame509 

   -2  1 
C         66.64879       74.63073       53.61406
C         65.40631       75.22259       54.21593
O         65.43898       76.37513       54.62283
H         67.46669       74.64724       54.36542
H         66.48753       73.57786       53.29916
H         66.95660       75.22284       52.72774
N         64.27031       74.47894       54.32869
C         63.05249       74.98179       54.96195
C         62.41690       76.11839       54.16949
O         62.85404       76.42327       53.06765
C         62.01525       73.84044       55.10211
C         62.54059       72.69513       55.92121
O         62.90816       72.89142       57.20167
O         62.62421       71.57922       55.43331
H         64.29300       73.50296       53.99399
H         63.31431       75.35256       55.97820
H         61.73162       73.47759       54.08826
H         61.09546       74.20774       55.60279
N         61.32423       76.75742       54.68042
C         60.54017       77.74674       53.94299
C         61.34124       79.01742       53.63537
O         62.41087       79.17316       54.20813
C         59.27367       78.05897       54.75805
H         60.99597       76.46944       55.61515
H         60.23474       77.25896       53.00730
H         59.54704       78.52946       55.72577
H         58.55823       78.71525       54.24473
H         58.73025       77.11152       54.96411
N         60.93778       79.98735       52.74831
C         59.73620       79.94293       51.90563
C         59.76894       78.75287       50.94402
O         60.81516       78.13806       50.77702
C         59.56036       81.27726       51.11831
C         60.67320       81.52611       50.12713
O         60.66379       82.51049       49.40629
O         61.64894       80.60738       50.02767
H         61.55130       80.81344       52.65985
H         58.85377       79.85838       52.55571
H         59.51670       82.12353       51.83861
H         58.59635       81.25079       50.56569
N         58.64127       78.36437       50.28536
C         58.59014       77.22819       49.36949
C         58.95701       75.90899       50.03761
O         59.31125       75.91311       51.20553
H         57.76960       78.89227       50.44502
H         59.27167       77.40864       48.51339
H         57.55467       77.15588       48.98201
N         58.88363       74.70382       49.40277
C         58.35918       74.47114       48.06174
C         59.34972       73.71206       47.17210
O         58.96767       73.34254       46.06988
C         57.07837       73.61685       48.21819
C         56.05812       74.26503       49.12555
N         55.48455       75.44562       48.79903
O         55.74521       73.71125       50.16935
H         59.14304       73.86705       49.95088
H         58.09389       75.42037       47.55327
H         57.36381       72.63189       48.65376
H         56.60796       73.43098       47.22924
H         55.72545       75.92400       47.91959
H         54.79380       75.88172       49.42815
N         60.61309       73.39695       47.58787
C         61.50035       72.49864       46.85759
C         62.00881       72.97017       45.50626
O         62.74664       72.20589       44.89997
H         60.94370       73.71918       48.50821
H         60.97832       71.52686       46.72265
H         62.39856       72.31017       47.48614
N         61.70606       74.18678       44.96989
C         62.24812       74.65583       43.69082
C         63.17341       75.83968       43.93671
O         63.41845       76.15960       45.09285
C         61.10375       74.92460       42.68527
C         60.38839       73.61661       42.32054
O         60.17284       75.83368       43.21041
H         61.09845       74.83325       45.49252
H         62.90061       73.88642       43.22081
H         61.51642       75.30808       41.72408
H         60.52236       76.74264       43.02193
H         59.92612       73.14703       43.21393
H         59.59483       73.81007       41.56833
H         61.11136       72.89632       41.87632
N         63.79848       76.48480       42.90536
C         64.90425       77.41597       43.12093
C         64.52797       78.84414       42.75818
O         64.17432       79.12299       41.62117
C         66.16243       76.95128       42.32832
C         67.35738       77.90337       42.61729
C         66.51170       75.49358       42.69211
C         68.62570       77.58194       41.82971
H         63.55552       76.24613       41.93236
H         65.19602       77.40387       44.19392
H         65.92975       76.98709       41.24021
H         67.59510       77.89035       43.70209
H         67.07602       78.94027       42.33788
H         67.36614       75.12363       42.09209
H         66.75677       75.40706       43.77214
H         65.66263       74.81553       42.46425
H         69.40071       78.34172       42.06620
H         69.03627       76.59073       42.10591
H         68.41775       77.61277       40.73956
N         64.67119       79.81147       43.70755
C         64.48305       81.23858       43.52210
C         65.77688       82.00919       43.80300
O         65.75141       83.22349       43.65743
C         63.41175       81.73805       44.51039
C         62.12903       80.97098       44.39727
O         61.68236       80.26431       45.45167
O         61.49080       80.97705       43.35768
H         64.95973       79.52157       44.63695
H         64.16003       81.44969       42.47881
H         63.20865       82.81850       44.34415
H         63.79976       81.61507       45.54601
N         66.93710       81.39509       44.20992
C         68.17158       82.12267       44.48465
C         68.69387       81.78679       45.89205
O         69.79192       81.25662       45.99670
C         69.20164       81.74920       43.38761
C         70.41051       82.65690       43.40202
C         70.26465       84.01465       43.06454
C         71.68661       82.16639       43.72966
C         71.37232       84.86576       43.05664
C         72.79193       83.02544       43.73055
C         72.63491       84.37280       43.39246
H         66.97970       80.37190       44.30418
H         67.99630       83.21662       44.42157
H         68.73727       81.84300       42.38174
H         69.48892       80.68081       43.51307
H         69.29370       84.41177       42.79535
H         71.82607       81.12527       43.99255
H         71.25067       85.90737       42.78807
H         73.77182       82.64720       43.99140
H         73.49107       85.03510       43.38806
N         67.98822       82.05754       47.03817
C         68.49752       81.78614       48.38270
C         68.81827       80.32571       48.67479
O         69.42021       80.05136       49.70380
C         67.35722       82.23879       49.30090
C         66.73571       83.35893       48.49631
C         66.73021       82.76612       47.08751
H         69.40958       82.41258       48.50857
H         66.58589       81.43406       49.35373
H         67.67001       82.49561       50.33579
H         65.74620       83.70577       48.85867
H         67.44560       84.21728       48.51508
H         65.90750       82.02965       46.95452
H         66.65169       83.59192       46.35052
N         68.40090       79.33250       47.84190
C         68.69358       77.92000       48.04932
C         70.17720       77.69377       47.87045
O         70.81957       77.19741       48.78557
C         67.91516       77.05033       47.03325
C         66.42260       76.86411       47.36464
C         65.63726       78.12441       47.56449
O         64.94343       78.30696       48.69542
O         65.56682       78.96004       46.69069
H         67.85013       79.59193       47.01616
H         68.38962       77.59973       49.07222
H         68.34012       76.02236       47.02521
H         68.04021       77.46831       46.01160
H         66.33136       76.25808       48.29124
H         65.95937       76.28808       46.53422
N         70.78988       78.03704       46.70446
C         72.20151       77.82090       46.48496
H         72.79350       78.36861       47.24834
H         72.42913       76.73531       46.54433
H         72.48650       78.19091       45.47736
H         70.23870       78.46849       45.94715
Ca        63.42865       79.96777       48.83519
O         64.32334       80.34675       51.56813
H         65.11866       79.76572       51.46773
H         64.68252       81.26901       51.54354
O         61.72690       77.43568       47.33999
H         62.33124       77.95558       46.75329
H         61.02367       77.09499       46.73169
O         59.57473       80.03768       47.57569
H         59.49792       80.67179       46.82015
H         58.76351       80.20558       48.11694
O         63.29098       82.81117       47.93127
H         63.24834       83.10030       48.87724
H         63.35829       83.65273       47.41491

Ca 1.0



