%chk=apoCaM-CA-Ng.loop1.water4.frame55.chk
%nprocshared=20
%mem=10GB
%nosave
#b3lyp/svp scf=(tight,noincore,xqc) Test 
#IOP(5/87=12) Density=Current Pop=(MK,readradii) iop(6/33=2) iop(6/42=6)

apoCaM-CA-Ng.loop1.water4.frame55 

   0  1 
C         61.89720       74.20407       69.78733
C         61.28191       75.56497       69.92334
O         61.04244       76.21835       68.91855
H         62.87885       74.18746       70.30533
H         61.23009       73.44415       70.24657
H         62.05038       73.94458       68.71818
N         60.98211       76.05261       71.15872
C         60.34792       77.35298       71.36830
C         61.23264       78.54468       70.98688
O         60.73501       79.65644       71.05124
C         59.86750       77.50264       72.83414
C         60.98349       77.56719       73.84469
O         61.73984       76.62258       74.00079
O         61.13059       78.66684       74.60831
H         61.15977       75.43662       71.96548
H         59.43268       77.37732       70.73617
H         59.19591       76.65557       73.09335
H         59.26997       78.43639       72.91689
N         62.54521       78.40585       70.63390
C         63.44905       79.53117       70.37087
C         63.37746       79.94187       68.89808
O         63.51528       79.04454       68.07734
C         64.91404       79.09404       70.64246
C         65.19443       78.48871       72.03409
C         64.96117       79.45102       73.20776
C         65.43309       78.85587       74.55213
N         64.66267       77.67913       74.95960
H         62.95281       77.46168       70.63837
H         63.24131       80.35775       71.07329
H         65.58697       79.96643       70.48593
H         65.19977       78.31262       69.90371
H         66.26458       78.18728       72.04273
H         64.58767       77.57186       72.16852
H         63.88843       79.73211       73.27702
H         65.55578       80.37233       73.02615
H         65.32623       79.63588       75.33759
H         66.51114       78.58852       74.48500
H         65.01773       77.34258       75.88365
H         63.65798       77.93802       75.06841
H         64.76519       76.89858       74.27360
N         63.24647       81.22185       68.41719
C         63.09231       82.47728       69.15491
C         64.25628       82.72133       70.10647
O         64.05517       82.74858       71.31250
C         61.70601       82.56223       69.80290
C         60.59884       82.38729       68.79189
O         60.82564       82.24052       67.60021
O         59.33519       82.33228       69.21832
H         63.27464       81.32412       67.38931
H         63.09417       83.31960       68.42740
H         61.58410       83.54657       70.29774
H         61.60676       81.79221       70.57854
N         65.52315       82.92692       69.64336
C         65.81071       83.03220       68.22088
C         67.27692       83.17408       67.88337
O         68.11355       83.13563       68.77409
H         66.27866       83.05097       70.33415
H         65.26740       83.91137       67.82993
H         65.47021       82.11190       67.71125
N         67.69514       83.27881       66.58728
C         66.78899       83.35373       65.44025
C         66.08719       84.70752       65.37091
O         66.75873       85.71826       65.21532
C         67.51678       83.05405       64.10410
C         68.59760       84.03377       63.71305
O         69.70441       84.18163       64.46496
O         68.48883       84.67737       62.68169
H         68.71085       83.25360       66.42465
H         66.03861       82.53855       65.53261
H         66.74639       83.03870       63.30001
H         67.96394       82.03795       64.15335
N         64.72750       84.79292       65.45983
C         63.97741       86.02941       65.28245
C         63.24222       86.45153       66.53420
O         63.46511       85.88936       67.59710
H         64.18197       83.93375       65.62521
H         63.24689       85.86490       64.46272
H         64.63261       86.87661       64.98184
N         62.35468       87.48627       66.46800
C         61.70339       88.06995       67.64131
C         60.91361       87.06594       68.46912
O         60.47065       86.04842       67.95651
C         60.78725       89.27000       67.26805
C         59.58433       88.87079       66.38539
O         61.53675       90.30198       66.67135
H         62.18684       87.90637       65.54208
H         62.52018       88.45550       68.29173
H         60.36213       89.68758       68.20713
H         61.64190       90.10407       65.70488
H         59.91666       88.44568       65.41522
H         58.94906       88.11856       66.89881
H         58.95686       89.76318       66.17821
N         60.72963       87.31506       69.79728
C         59.98301       86.44635       70.70038
C         58.49808       86.72322       70.53571
O         58.10582       87.87219       70.68452
C         60.39083       86.71052       72.18972
C         61.91639       86.50952       72.40430
C         59.59137       85.78294       73.12990
C         62.38134       86.84987       73.82459
H         61.16706       88.16295       70.18930
H         60.22651       85.38388       70.48940
H         60.14117       87.76591       72.44194
H         62.47958       87.18053       71.72412
H         62.20398       85.46242       72.16626
H         59.79328       86.00156       74.19605
H         58.50724       85.93860       72.99678
H         59.82687       84.71671       72.92282
H         63.48517       86.75348       73.88678
H         62.10165       87.89402       74.08201
H         61.94948       86.15830       74.57528
N         57.60823       85.71107       70.31364
C         56.15719       85.92969       70.29024
C         55.44985       85.26219       71.47078
O         54.25606       85.48781       71.62302
C         55.55196       85.48785       68.93685
C         55.63781       83.97730       68.71818
O         56.21365       86.13661       67.88250
H         57.97320       84.75301       70.21412
H         55.94489       87.01511       70.39587
H         54.46867       85.74974       68.90882
H         55.93695       87.08925       67.90987
H         55.08390       83.43045       69.50920
H         55.19483       83.70789       67.73630
H         56.69094       83.65156       68.73172
N         56.10983       84.45016       72.35043
C         55.52998       83.82779       73.54226
C         54.43527       82.82284       73.19853
O         53.97174       82.77463       72.06983
C         55.06130       84.89674       74.57155
C         56.19828       85.86116       74.92708
O         54.62385       84.27330       75.75103
H         57.10771       84.25188       72.19883
H         56.34656       83.23663       74.01608
H         54.22044       85.47743       74.12937
H         54.05422       84.92786       76.23396
H         57.06183       85.30261       75.34895
H         56.52433       86.42613       74.03135
H         55.84919       86.59832       75.68010
N         54.01670       81.93770       74.15043
C         53.01067       80.90806       73.91305
C         53.40874       80.01602       72.74932
O         52.62698       79.89316       71.81595
C         52.70229       80.11538       75.21517
C         53.87168       79.32970       75.84719
C         53.44217       78.71248       77.18962
C         54.54584       77.88328       77.87251
N         55.70053       78.69356       78.26777
H         54.44981       81.98950       75.08047
H         52.05428       81.41118       73.64353
H         51.86793       79.40763       75.01405
H         52.34125       80.85595       75.96309
H         54.72553       80.01126       76.02482
H         54.18967       78.51143       75.16912
H         52.57742       78.03848       77.00555
H         53.11311       79.51553       77.88557
H         54.87410       77.05970       77.20106
H         54.10897       77.42404       78.78741
H         56.19573       79.07230       77.43020
H         55.39698       79.47694       78.89092
H         56.37227       78.08962       78.79484
N         54.62418       79.40270       72.71178
C         55.06990       78.56035       71.61014
C         55.27678       77.15568       72.12228
O         56.38713       76.63966       72.10810
C         56.34015       79.16154       70.97051
C         56.11168       80.52762       70.29734
C         55.21416       80.46222       69.07202
O         54.04186       80.14436       69.17620
O         55.69555       80.78216       67.85217
H         55.28263       79.55096       73.49167
H         54.30063       78.46299       70.82142
H         56.74531       78.46670       70.20247
H         57.11369       79.27986       71.76252
H         57.11128       80.89269       70.00245
H         55.71289       81.25799       71.02637
N         54.19734       76.45675       72.56381
C         54.29325       75.09178       73.02412
H         54.70182       74.44948       72.21474
H         54.95135       75.03820       73.91576
H         53.28327       74.71778       73.29579
H         53.26689       76.90276       72.54731
Ca        57.76508       81.62365       67.78519
O         60.67070       79.81629       65.77292
H         60.96434       79.91051       64.83220
H         61.00438       78.92587       66.04802
O         58.38719       84.25606       66.24426
H         58.51980       84.42057       67.21096
H         57.49337       84.63264       66.04718
O         59.73074       82.42016       64.16346
H         60.10531       82.09703       63.30585
H         58.86047       82.82286       63.91711
O         58.82996       78.79409       68.30645
H         59.62234       78.25277       68.06779
H         59.18991       79.51041       68.88614

Ca 1.0



