%chk=apoCaM-CA-Ng.loop4.water4.frame427.chk
%nprocshared=20
%mem=10GB
%nosave
#b3lyp/svp scf=(tight,noincore,xqc) Test 
#IOP(5/87=12) Density=Current Pop=(MK,readradii) iop(6/33=2) iop(6/42=6)

apoCaM-CA-Ng.loop4.water4.frame427 

   -3  1 
C         67.87330       56.09173       65.18892
C         67.02182       54.99713       64.62181
O         67.54978       54.19876       63.87326
H         68.29896       56.69351       64.35784
H         67.29069       56.75972       65.85482
H         68.70792       55.64281       65.76907
N         65.70107       54.88468       64.94408
C         64.80776       53.84080       64.44374
C         65.28473       52.46340       64.86660
O         65.64370       51.67457       64.01654
C         64.45339       54.02034       62.93353
C         65.54761       53.86650       61.90466
O         66.04868       52.65559       61.58276
O         65.90846       54.84116       61.26453
H         65.30058       55.56863       65.60355
H         63.82166       53.97699       64.94267
H         64.03702       55.04786       62.83952
H         63.63695       53.31775       62.65865
N         65.28316       52.12480       66.19388
C         65.63703       50.82746       66.79055
C         64.64030       49.73295       66.40955
O         63.87631       49.31994       67.27158
C         67.12367       50.44253       66.55374
C         67.50435       49.07085       67.17857
C         68.04089       51.55652       67.08844
C         67.30389       48.95773       68.69373
H         64.98184       52.85515       66.85788
H         65.51957       50.96509       67.88972
H         67.31220       50.34771       65.46254
H         68.57340       48.86720       66.95447
H         66.90856       48.26827       66.69385
H         67.86204       52.50800       66.54558
H         67.87332       51.73706       68.17020
H         69.09849       51.27988       66.94919
H         67.91005       49.70849       69.23644
H         66.23712       49.08140       68.96839
H         67.62504       47.94928       69.03042
N         64.56430       49.23168       65.14714
C         63.52941       48.30594       64.71632
C         63.72566       46.89594       65.26263
O         62.81073       46.43331       65.92886
C         63.39389       48.30827       63.17557
C         62.99543       49.66127       62.62667
O         62.84295       49.80057       61.42433
O         62.78445       50.71612       63.44067
H         65.21757       49.56189       64.43586
H         62.54692       48.68553       65.08474
H         62.60086       47.58639       62.88278
H         64.34416       47.99869       62.69726
N         64.80911       46.09410       65.01900
C         66.03615       46.45296       64.32479
C         66.15148       45.73105       62.99673
O         65.16912       45.13915       62.57057
H         64.76804       45.12526       65.37284
H         66.88418       46.17611       64.98384
H         66.09632       47.53160       64.14738
N         67.29461       45.71797       62.24337
C         68.59977       46.26626       62.64020
C         68.54895       47.76197       62.93041
O         67.58546       48.39430       62.52293
C         69.64701       45.93571       61.54032
C         69.25279       46.43949       60.17233
O         69.08991       45.65061       59.25448
O         69.07604       47.75320       59.94963
H         67.23465       45.21699       61.34229
H         68.89726       45.74840       63.57135
H         69.75288       44.83013       61.48631
H         70.64178       46.34302       61.78389
N         69.51564       48.44794       63.61803
C         70.76399       47.94561       64.19322
C         70.61215       47.04193       65.39703
O         69.50259       46.69651       65.77497
H         69.35289       49.45767       63.72869
H         71.34003       48.81638       64.56094
H         71.39313       47.46524       63.42418
N         71.73871       46.63286       66.06019
C         71.72895       45.71821       67.20089
C         72.27827       46.32783       68.49658
O         72.15561       45.65903       69.51444
C         72.38686       44.36986       66.80314
C         73.79499       44.43270       66.18026
C         74.86804       44.86871       67.12868
N         75.17446       44.12172       68.21169
O         75.50175       45.88308       66.89229
H         72.65084       46.96795       65.71572
H         70.67648       45.46380       67.45602
H         71.73695       43.92621       66.01753
H         72.37403       43.66817       67.66538
H         73.78021       45.09256       65.28772
H         74.07118       43.41866       65.81944
H         74.67042       43.24670       68.41339
H         75.94057       44.40492       68.83325
N         72.80827       47.59005       68.57751
C         73.09091       48.25557       69.86074
C         74.55902       48.60074       70.09532
O         74.84094       49.17526       71.13750
C         72.21684       49.53844       70.01291
C         70.72294       49.19527       70.01317
C         72.51671       50.60280       68.94315
H         72.94509       48.12994       67.71269
H         72.82037       47.58891       70.70966
H         72.43742       49.99289       71.00529
H         70.49644       48.47681       70.82989
H         70.12555       50.11483       70.19176
H         70.41499       48.74968       69.04408
H         73.58883       50.89046       68.96219
H         72.26178       50.23884       67.92901
H         71.91604       51.51663       69.13845
N         75.54934       48.26209       69.22338
C         76.95800       48.57458       69.46915
C         77.58981       49.35594       68.32501
O         78.77655       49.64289       68.43392
C         77.74924       47.26929       69.71013
C         77.27657       46.51991       70.93556
N         77.32076       47.08798       72.16335
O         76.86904       45.37564       70.82370
H         75.31029       47.73267       68.38005
H         77.07543       49.20741       70.37427
H         78.82325       47.50891       69.87131
H         77.67444       46.61997       68.80946
H         77.67386       48.04593       72.29519
H         77.00379       46.56116       72.99114
N         76.90045       49.75401       67.21368
C         77.55627       50.44308       66.10030
C         76.58091       50.99666       65.07696
O         75.54828       50.38687       64.84392
C         78.61329       49.53165       65.41475
C         78.14794       48.11089       65.11823
C         78.77715       47.03622       65.77744
C         77.11973       47.82376       64.19977
C         78.38722       45.71715       65.53310
C         76.72583       46.50088       63.96144
C         77.35760       45.44442       64.62453
O         76.96568       44.17610       64.38588
H         75.88800       49.56972       67.15314
H         78.07893       51.33738       66.50820
H         79.48199       49.46889       66.10075
H         78.99809       50.01444       64.49097
H         79.57502       47.21561       66.48697
H         76.61941       48.60723       63.65654
H         78.88543       44.90867       66.05352
H         75.92790       46.29541       63.25846
H         77.37321       43.41911       64.83126
N         76.92805       52.12099       64.36540
C         76.18205       52.75025       63.26906
C         74.98055       53.57358       63.71440
O         74.88850       54.72841       63.31947
C         75.81197       51.75373       62.15382
C         77.06598       51.08229       61.57548
C         76.71404       50.17874       60.43214
O         77.17430       50.38854       59.32110
O         75.89678       49.12652       60.62724
H         77.85107       52.53673       64.56613
H         76.86375       53.49002       62.78790
H         75.30968       52.31905       61.33664
H         75.09483       50.99004       62.51976
H         77.57853       50.48476       62.35737
H         77.76931       51.86838       61.22042
N         74.01785       53.05704       64.51766
C         72.80746       53.76130       64.91707
C         73.15955       55.06996       65.59243
O         72.70066       56.10981       65.13986
C         71.95455       52.87576       65.85889
C         71.59431       51.50223       65.25623
C         70.79928       51.61915       63.99687
O         71.20738       51.12609       62.95815
O         69.60620       52.22949       64.03007
H         74.15570       52.11902       64.87314
H         72.20003       53.97935       64.00942
H         71.01712       53.41687       66.11870
H         72.51244       52.69094       66.80131
H         71.00119       50.92820       65.98922
H         72.49271       50.88548       65.06633
N         74.01532       55.09184       66.65227
C         74.44978       56.31211       67.30113
H         75.55087       56.40852       67.19195
H         73.97883       57.21760       66.86354
H         74.19655       56.26804       68.37988
H         74.40992       54.20437       66.99826
Ca        68.03458       52.02908       62.43289
O         66.03257       49.75432       60.41408
H         66.15538       48.78424       60.25867
H         65.44030       50.04987       59.67811
O         69.46727       54.24043       60.76950
H         68.70826       54.73339       61.17078
H         70.01687       53.95933       61.54371
O         67.59233       52.09916       58.95979
H         67.43285       53.07494       58.91053
H         67.89708       51.84911       58.05162
O         69.99644       50.89730       60.43932
H         69.47154       50.21546       59.95364
H         70.66676       51.21012       59.78244

Ca 1.0



