%chk=apoCaM-CA-Ng.loop1.water4.frame354.chk
%nprocshared=20
%mem=10GB
%nosave
#b3lyp/svp scf=(tight,noincore,xqc) Test 
#IOP(5/87=12) Density=Current Pop=(MK,readradii) iop(6/33=2) iop(6/42=6)

apoCaM-CA-Ng.loop1.water4.frame354 

   0  1 
C         67.75231       98.67002       49.26049
C         68.33441       99.81180       48.47663
O         69.54849       99.94187       48.42890
H         66.64222       98.66496       49.20814
H         68.12294       97.70818       48.84834
H         68.05255       98.75428       50.32500
N         67.51613      100.67461       47.81542
C         67.99613      101.77707       46.98706
C         68.63694      102.92001       47.77427
O         68.94872      103.90553       47.13123
C         66.82467      102.35694       46.15363
C         66.21478      101.33273       45.23783
O         64.91047      101.01835       45.35045
O         66.89271      100.79738       44.37477
H         66.49976      100.49964       47.85509
H         68.74329      101.39091       46.25983
H         67.19179      103.18391       45.50798
H         66.04706      102.76597       46.83567
N         68.84554      102.92147       49.12594
C         69.34963      104.10660       49.82620
C         70.65325      103.87833       50.56554
O         70.74198      102.88952       51.28001
C         68.30005      104.62013       50.81836
C         67.08534      105.17685       50.06963
C         66.17763      105.96419       51.01277
C         65.05462      106.64494       50.22540
N         64.23858      107.48338       51.09845
H         68.59251      102.10084       49.69267
H         69.51426      104.92274       49.12003
H         68.75665      105.45809       51.38742
H         68.00652      103.83556       51.55022
H         66.52938      104.35653       49.56495
H         67.44737      105.88595       49.29284
H         66.78265      106.75612       51.50861
H         65.75867      105.29158       51.79201
H         64.41924      105.87397       49.73591
H         65.50113      107.29041       49.43788
H         64.83212      108.23114       51.52721
H         63.48883      107.93642       50.52807
H         63.80038      106.90298       51.84900
N         71.68593      104.78990       50.57116
C         71.77429      106.06538       49.83561
C         70.61670      107.01017       50.14911
O         69.80475      107.27968       49.27431
C         72.02520      105.84883       48.32603
C         73.33745      105.14950       48.10143
O         74.07125      104.73009       49.15419
O         73.70730      104.90146       46.96507
H         72.48737      104.57254       51.18481
H         72.69218      106.59952       50.15989
H         72.07049      106.83248       47.81514
H         71.22161      105.25872       47.84841
N         70.48789      107.61428       51.36438
C         71.52237      107.52178       52.38133
C         71.27109      108.39303       53.59733
O         70.17941      108.91903       53.75369
H         69.67512      108.23106       51.51197
H         72.44798      107.91229       51.91337
H         71.67584      106.46985       52.70215
N         72.26649      108.66137       54.49532
C         73.64277      108.19138       54.34070
C         74.48080      109.23417       53.62143
O         74.00532      110.33923       53.38955
C         74.23955      107.75229       55.69741
C         74.40151      108.84587       56.72762
O         74.89509      108.53326       57.94052
O         74.10715      110.00592       56.48585
H         72.05615      109.33757       55.24497
H         73.65930      107.28856       53.69706
H         75.24095      107.30307       55.52632
H         73.58321      106.96390       56.12475
N         75.73600      108.92796       53.18887
C         76.57475      109.87077       52.46676
C         76.05061      110.26358       51.09262
O         76.69084      111.10278       50.47506
H         76.12433      107.99442       53.39267
H         77.58195      109.42347       52.31933
H         76.69648      110.78354       53.08954
N         74.92852      109.71310       50.53366
C         74.41801      110.09688       49.21938
C         73.01205      110.65115       49.36487
O         72.12677      109.93832       49.81858
C         74.40828      108.88804       48.26202
C         75.80576      108.30169       48.05609
O         73.89268      109.28932       47.01774
H         74.40966      108.98404       51.04060
H         75.06403      110.87715       48.76036
H         73.76040      108.10789       48.71297
H         73.49195      108.48601       46.59483
H         76.48188      109.06282       47.61230
H         76.22992      107.95093       49.01984
H         75.74454      107.43186       47.36759
N         72.74023      111.93451       48.99680
C         71.41219      112.53440       49.12472
C         70.38578      111.93764       48.15104
O         69.22124      112.29424       48.26536
C         71.47299      114.09003       48.93788
C         71.88381      114.48992       47.49084
C         72.39412      114.72740       49.99928
C         71.86287      115.99691       47.23126
H         73.52504      112.50968       48.66158
H         71.05799      112.34338       50.16340
H         70.44995      114.48848       49.12264
H         71.16431      114.03742       46.77973
H         72.89537      114.10957       47.24107
H         72.34511      115.83423       49.95756
H         72.06770      114.42917       51.01773
H         73.45244      114.42376       49.86291
H         72.09756      116.18665       46.16215
H         70.85865      116.41535       47.45317
H         72.62864      116.52101       47.83792
N         70.74698      111.10483       47.12566
C         69.82774      110.66696       46.07309
C         69.78964      109.14803       45.93248
O         70.83002      108.51174       45.85035
C         70.18625      111.34632       44.72595
C         71.60805      111.06830       44.22740
O         70.02849      112.73689       44.84539
H         71.73363      110.83808       47.02391
H         68.79234      111.01085       46.29074
H         69.48791      110.96775       43.94152
H         69.05594      112.92759       44.77599
H         71.75955      111.57998       43.25375
H         72.36434      111.46237       44.93748
H         71.77638      109.98475       44.07095
N         68.58596      108.51215       45.84981
C         68.42003      107.06649       45.70679
C         69.07656      106.48760       44.44936
O         68.81957      106.96840       43.35538
C         66.91464      106.66723       45.73295
C         66.06395      107.22844       44.57882
O         66.35620      107.07864       46.95248
H         67.73660      109.09277       45.90828
H         68.86993      106.58351       46.60166
H         66.87771      105.55391       45.67007
H         65.63379      106.43255       47.17063
H         65.01473      106.88245       44.69311
H         66.06052      108.33735       44.57467
H         66.41484      106.86267       43.59420
N         69.86925      105.37542       44.55670
C         70.36739      104.57668       43.42286
C         71.29435      103.38537       43.82926
O         71.89651      102.81180       42.93376
C         69.14828      104.03703       42.60261
C         69.49235      103.44661       41.22194
C         68.21785      103.03808       40.46082
C         68.55174      102.51885       39.05383
N         67.34030      102.12165       38.33495
H         70.08401      105.10544       45.50860
H         70.96497      105.27007       42.79140
H         68.44530      104.86483       42.39198
H         68.59526      103.28977       43.21384
H         70.13739      102.55197       41.32173
H         70.02969      104.22075       40.63142
H         67.54325      103.91742       40.36230
H         67.68586      102.24573       41.03207
H         69.23421      101.64386       39.13020
H         69.06943      103.31937       38.47927
H         67.60336      101.78652       37.37974
H         66.85804      101.34516       38.84323
H         66.69180      102.93668       38.23832
N         71.47342      102.94833       45.11979
C         72.35137      101.84248       45.51904
C         71.90044      100.52182       44.93290
O         70.78096      100.09815       45.18609
C         72.37180      101.73833       47.06753
C         73.19285      100.60075       47.70712
C         74.63764      100.50465       47.27421
O         74.91796      100.02458       46.19076
O         75.63676      100.88850       48.09164
H         70.98490      103.40125       45.88896
H         73.38712      102.07465       45.18935
H         71.32946      101.63689       47.44231
H         72.75973      102.68823       47.46512
H         72.70937       99.61759       47.52009
H         73.15305      100.77401       48.80572
N         72.76331       99.78271       44.18399
C         72.43370       98.46028       43.70448
H         71.55925       98.50493       43.02439
H         73.30147       98.03268       43.15794
H         72.20640       97.79635       44.56715
H         73.70425      100.15009       43.97831
Ca        75.38012      102.95428       48.88681
O         76.76217      100.99134       51.43312
H         76.58355      100.21370       50.84672
H         77.45493      100.67177       52.06443
O         78.72219      102.25838       49.19223
H         79.42562      102.86948       49.52724
H         79.05194      101.35274       49.41938
O         77.11040      103.88527       46.50066
H         76.14096      103.76000       46.34503
H         77.54392      103.25124       45.87638
O         77.97935      105.47254       49.19461
H         78.56565      105.51452       48.39772
H         78.58252      105.66628       49.95558

Ca 1.0



