%chk=apoCaM-CA-Ng.loop2.water3.frame219.chk
%nprocshared=20
%mem=10GB
%nosave
#b3lyp/svp scf=(tight,noincore,xqc) Test 
#IOP(5/87=12) Density=Current Pop=(MK,readradii) iop(6/33=2) iop(6/42=6)

apoCaM-CA-Ng.loop2.water3.frame219 

   -2  1 
C          0.52761       25.27432       73.93162
C         -0.21551       23.97580       73.86637
O          0.16207       23.11416       73.08519
H          1.37536       25.27609       73.21273
H         -0.15968       26.10665       73.67297
H          0.92497       25.42736       74.95605
N         -1.29582       23.76212       74.67024
C         -2.06653       22.52511       74.62803
C         -2.69122       22.38812       73.24929
O         -3.49781       23.22917       72.87610
C         -3.13463       22.52477       75.74685
C         -3.90884       21.23776       75.87708
O         -3.69529       20.28711       75.14101
O         -4.84408       21.12992       76.83992
H         -1.56747       24.50534       75.33314
H         -1.36891       21.68130       74.83041
H         -3.84931       23.36019       75.58189
H         -2.62190       22.69667       76.71869
N         -2.29994       21.38245       72.41598
C         -2.74842       21.25615       71.03314
C         -1.56792       21.46120       70.09143
O         -0.46452       21.70710       70.56030
C         -3.40793       19.88895       70.83800
H         -1.60400       20.70065       72.75622
H         -3.50263       22.03623       70.78820
H         -2.68399       19.07256       71.04327
H         -4.26998       19.78912       71.53214
H         -3.79277       19.77796       69.80289
N         -1.73692       21.41135       68.73853
C         -0.67211       21.70461       67.78414
C         -0.36937       20.46472       66.95187
O         -0.55953       20.47120       65.74249
C         -1.11585       22.92092       66.93956
C         -0.07468       23.42467       65.97568
O          1.15108       22.86834       65.90888
O         -0.34644       24.36347       65.24566
H         -2.67168       21.19504       68.36011
H          0.26729       21.98931       68.30777
H         -1.36463       23.76082       67.62564
H         -2.03412       22.65499       66.37194
N          0.12406       19.34716       67.55862
C          0.42312       18.11295       66.84461
C          1.59517       18.19008       65.87132
O          1.83295       17.19460       65.20207
H          0.25038       19.35429       68.58222
H         -0.49161       17.79676       66.29576
H          0.66257       17.31786       67.58282
N          2.36457       19.30863       65.71528
C          3.42980       19.40644       64.71469
C          4.58917       18.45101       65.00943
O          5.16543       18.50433       66.08623
C          3.92840       20.86495       64.60899
C          4.85954       21.11236       63.43777
N          5.30337       22.36356       63.18322
O          5.19891       20.19850       62.70034
H          2.15602       20.14097       66.28409
H          2.97710       19.17010       63.72490
H          4.41948       21.16877       65.55826
H          3.04199       21.51689       64.45122
H          5.01566       23.15366       63.77555
H          5.92623       22.54584       62.38258
N          4.98311       17.55781       64.05843
C          6.04956       16.57620       64.20466
C          7.45095       17.15261       64.32896
O          7.81954       18.01712       63.54650
H          4.47166       17.54631       63.16267
H          6.06533       15.97295       63.27073
H          5.82016       15.87724       65.03665
N          8.33709       16.58466       65.20160
C          9.76811       16.90479       65.24092
C         10.03851       18.32790       65.69670
O         10.88120       18.98371       65.10090
C         10.58913       15.87369       66.06993
C         10.26060       15.81548       67.56842
O         10.48993       14.59323       65.49296
H          7.99076       15.81686       65.79421
H         10.17672       16.79959       64.20955
H         11.66025       16.16767       65.99764
H          9.60141       14.21427       65.71815
H         10.45351       16.79382       68.04318
H          9.20530       15.52465       67.74398
H         10.91757       15.06602       68.06000
N          9.32683       18.88100       66.71713
C          9.47386       20.26842       67.14878
C          8.24238       21.04750       66.71881
O          7.34583       20.45762       66.13115
C          9.82270       20.40444       68.66869
C          8.79400       19.85326       69.70094
C         11.24344       19.89093       68.95338
C          8.75800       18.33543       69.94395
H          8.57434       18.32090       67.12691
H         10.30700       20.75475       66.59478
H          9.86725       21.49631       68.86757
H          7.77665       20.22387       69.45405
H          9.07139       20.28964       70.68632
H         11.33251       18.80702       68.74907
H         11.97728       20.42206       68.30991
H         11.51913       20.08412       70.01232
H          8.40147       17.74851       69.08755
H          9.75437       17.95838       70.25497
H          8.05156       18.12171       70.77284
N          8.15617       22.39717       66.91526
C          7.06966       23.19500       66.36282
C          7.66150       24.31062       65.50942
O          7.32172       25.46564       65.70382
C          6.17396       23.69953       67.51689
C          4.91577       24.40411       67.07552
O          4.64487       24.54335       65.89386
O          4.06473       24.87402       68.00588
H          8.89776       22.88818       67.43570
H          6.43803       22.56787       65.70284
H          6.76261       24.37436       68.17298
H          5.85593       22.82243       68.12073
N          8.59020       24.02716       64.55056
C          9.21580       25.04770       63.70830
C          9.90791       26.10997       64.56186
O         10.70696       25.73527       65.41164
C         10.23877       24.39208       62.75186
C         10.80160       25.39458       61.77122
C         10.16186       25.60840       60.53816
C         11.95174       26.14034       62.08574
C         10.66250       26.55333       59.63745
C         12.44887       27.08471       61.18151
C         11.80426       27.29160       59.95902
H          8.87362       23.04246       64.42709
H          8.42546       25.50015       63.07547
H          9.72979       23.58544       62.17937
H         11.06247       23.90229       63.31765
H          9.27179       25.04915       60.27832
H         12.45939       25.99518       63.03099
H         10.16253       26.71586       58.69135
H         13.33237       27.65888       61.42926
H         12.18825       28.02478       59.26132
N          9.69464       27.45439       64.38418
C         10.38910       28.48671       65.13804
C          9.67038       28.83969       66.43893
O         10.19755       29.63397       67.20199
C         10.35406       29.67505       64.17165
C          8.96211       29.53443       63.57397
C          8.88335       28.02963       63.32436
H         11.44346       28.20312       65.35460
H         10.58290       30.66330       64.62495
H         11.08538       29.48442       63.35266
H          8.22747       29.80268       64.36643
H          8.74896       30.15788       62.68043
H          7.82484       27.69248       63.34379
H          9.35368       27.77526       62.35149
N          8.43487       28.33655       66.72146
C          7.67801       28.67433       67.91936
C          8.37314       28.11232       69.13840
O          8.70710       28.87103       70.03877
C          6.24502       28.10288       67.83270
C          5.43836       28.70570       66.66833
C          4.10909       28.02465       66.56435
O          3.31372       28.07036       67.48911
O          3.81161       27.31567       65.46039
H          7.99321       27.71929       66.03647
H          7.58868       29.78089       68.00665
H          5.70470       28.31712       68.78168
H          6.29649       27.00019       67.70584
H          5.97086       28.55437       65.70658
H          5.29712       29.79786       66.81669
N          8.62305       26.77758       69.23346
C          9.26164       26.19035       70.38886
H         10.26993       26.63262       70.53186
H          8.64257       26.37014       71.29349
H          9.36819       25.09408       70.24357
H          8.35337       26.15362       68.45831
Ca         1.97289       26.02005       65.43816
O          2.91225       25.34477       62.69878
H          2.30268       25.87717       62.12815
H          3.44732       24.80793       62.06229
O          0.99644       25.68544       68.39552
H          1.56578       26.34801       68.86151
H          1.14404       24.83998       68.88925
O          0.32083       28.32018       64.58927
H          0.76160       28.52451       65.45245
H         -0.37694       27.65575       64.81869

Ca 1.0



