%chk=apoCaM-CA-Ng.loop4.water5.frame596.chk
%nprocshared=20
%mem=10GB
%nosave
#b3lyp/svp scf=(tight,noincore,xqc) Test 
#IOP(5/87=12) Density=Current Pop=(MK,readradii) iop(6/33=2) iop(6/42=6)

apoCaM-CA-Ng.loop4.water5.frame596 

   -3  1 
C         38.91360      120.07630       80.21843
C         39.38036      121.35058       79.58270
O         39.92167      121.28532       78.48809
H         38.17386      119.58467       79.55068
H         39.77805      119.39498       80.36250
H         38.43441      120.26305       81.20125
N         39.18317      122.55674       80.19820
C         39.57098      123.83540       79.61089
C         38.87343      123.98582       78.27288
O         39.55118      124.04358       77.25365
C         41.11516      123.95882       79.46475
C         41.90322      123.93613       80.77562
O         41.49863      124.96873       81.62934
O         41.74378      122.72497       81.45747
H         38.70482      122.57757       81.11132
H         39.23319      124.66633       80.26849
H         41.34435      124.93103       78.97554
H         41.51589      123.15898       78.81029
N         37.50699      124.03184       78.19746
C         36.80512      124.02364       76.91486
C         36.25169      125.40000       76.59692
O         35.88614      126.09575       77.53493
C         35.72558      122.88743       76.83214
C         34.40272      123.14190       77.61377
C         36.33317      121.55985       77.32099
C         33.41292      124.08765       76.91456
H         36.95515      124.05103       79.06876
H         37.56107      123.76618       76.16211
H         35.45031      122.74061       75.76373
H         34.61664      123.47527       78.65098
H         33.84460      122.18147       77.67862
H         36.55790      121.60015       78.40754
H         35.62240      120.72281       77.14662
H         37.27132      121.33289       76.78324
H         33.77093      125.12181       76.80072
H         33.16021      123.69371       75.90667
H         32.47647      124.14109       77.50846
N         36.12109      125.89941       75.32902
C         36.58455      125.25414       74.10014
C         37.69218      126.05157       73.42452
O         38.44780      125.45567       72.67249
C         35.42207      124.94113       73.13512
C         34.67300      126.12956       72.58420
O         35.00746      127.39360       72.90401
O         33.74196      125.93949       71.81877
H         35.67490      126.82419       75.24813
H         37.01737      124.26911       74.30795
H         34.69740      124.28818       73.66865
H         35.82575      124.36657       72.27164
N         37.85252      127.39300       73.62904
C         38.85572      128.19882       72.95958
C         38.66463      128.18461       71.45946
O         37.57527      128.47708       70.98664
H         37.22960      127.89904       74.26975
H         39.87213      127.84850       73.24277
H         38.75297      129.25041       73.30535
N         39.71452      127.88465       70.64779
C         39.64177      127.87440       69.18749
C         38.82846      126.71503       68.60059
O         38.73748      126.64910       67.38240
C         41.07232      127.90079       68.57696
C         42.02027      126.79712       68.99099
O         41.69051      125.88456       69.92430
O         43.13781      126.76297       68.50242
H         40.62723      127.73312       71.10091
H         39.16036      128.81972       68.85127
H         41.55488      128.85998       68.86367
H         40.98397      127.89549       67.46841
N         38.21602      125.76339       69.36687
C         37.52673      124.60894       68.80137
C         38.47960      123.60649       68.16171
O         38.00625      122.63166       67.59683
H         38.23153      125.84309       70.38379
H         36.77516      124.96100       68.06085
H         36.98263      124.07134       69.60828
N         39.83401      123.77821       68.22434
C         40.85273      122.93827       67.60493
C         41.00237      121.56426       68.24466
O         41.86928      120.82188       67.80341
C         40.67285      122.88145       66.07285
C         40.57954      124.30347       65.48144
C         40.51827      124.34206       63.97796
N         40.39568      125.53385       63.34929
O         40.57922      123.31364       63.32014
H         40.19905      124.59052       68.71690
H         41.83462      123.43511       67.78260
H         39.76227      122.30729       65.80087
H         41.55514      122.36282       65.63803
H         41.45982      124.89968       65.80613
H         39.66003      124.79117       65.86365
H         40.33673      126.40939       63.89158
H         40.35450      125.58464       62.32085
N         40.25624      121.17455       69.31909
C         40.43580      119.90221       70.01111
C         40.82568      120.18541       71.45705
O         41.87579      119.73946       71.89599
C         39.13017      119.05833       69.92023
C         38.75500      118.78623       68.45325
C         39.27215      117.71539       70.65743
H         39.53782      121.80835       69.69180
H         41.25093      119.30501       69.54296
H         38.29104      119.61974       70.38556
H         37.81297      118.19920       68.40010
H         38.58801      119.73722       67.90574
H         39.55910      118.21550       67.94125
H         39.48357      117.87572       71.73550
H         38.32609      117.13665       70.58582
H         40.09305      117.10968       70.21714
N         39.99657      120.91252       72.25616
C         40.23243      121.16856       73.67510
C         41.47533      122.01259       73.91319
O         41.59293      123.08002       73.33678
C         39.02009      121.89613       74.28504
C         37.74578      121.10596       74.10172
N         37.61470      119.86547       74.62781
O         36.82207      121.59378       73.46767
H         39.12221      121.26475       71.84124
H         40.33540      120.19514       74.20000
H         38.91223      122.89147       73.80141
H         39.19302      122.05303       75.37116
H         38.37627      119.43763       75.17378
H         36.74297      119.33219       74.49660
N         42.42796      121.58116       74.79669
C         43.64572      122.34051       75.11447
C         44.57545      121.51507       76.01268
O         44.14294      120.54887       76.61492
C         43.29223      123.68044       75.81741
C         44.48868      124.57408       76.04996
C         44.90554      124.89226       77.35499
C         45.19395      125.10600       74.95694
C         46.01632      125.71865       77.55928
C         46.30094      125.93374       75.16447
C         46.71769      126.24188       76.46298
O         47.78970      127.03995       76.64363
H         42.27263      120.66710       75.23803
H         44.17140      122.51669       74.15182
H         42.79677      123.43822       76.78233
H         42.56657      124.26892       75.22142
H         44.37718      124.49801       78.21314
H         44.88510      124.88030       73.94422
H         46.32993      125.95221       78.56926
H         46.83543      126.33688       74.31284
H         48.11365      127.27774       77.52431
N         45.90376      121.83336       76.09540
C         46.85656      121.05452       76.87626
C         47.60110      121.98230       77.82278
O         48.43227      122.74060       77.34820
C         47.78539      120.32345       75.87314
C         48.90105      119.45107       76.47354
C         50.03454      120.25952       77.03922
O         50.38243      120.13062       78.33272
O         50.66280      121.02054       76.31872
H         46.26735      122.61480       75.53633
H         46.33468      120.27239       77.45648
H         48.23695      121.04715       75.15926
H         47.12580      119.65051       75.28116
H         49.33096      118.83274       75.65585
H         48.47612      118.76528       77.23549
N         47.34425      122.05815       79.16562
C         46.23854      121.39250       79.85674
C         46.46128      119.90091       80.03930
O         47.53308      119.39580       79.73223
C         46.02027      122.03894       81.24838
C         45.63644      123.52349       81.14601
C         45.48690      124.12722       82.51074
O         44.57211      123.64142       83.37099
O         46.19551      125.06289       82.84703
H         47.91082      122.73835       79.69724
H         45.30842      121.54667       79.26441
H         46.95116      121.92982       81.84960
H         45.19952      121.51880       81.78915
H         44.67844      123.62289       80.59520
H         46.41001      124.09350       80.59103
N         45.45992      119.13121       80.55168
C         45.60191      117.71120       80.78510
H         44.65263      117.30046       81.19286
H         45.83558      117.18809       79.83452
H         46.40980      117.52839       81.52488
H         44.55334      119.56598       80.78470
Ca        41.08930      123.64635       83.42418
O         40.99945      126.02041       85.47146
H         40.31464      125.93084       86.18066
H         40.98071      126.97969       85.22661
O         40.54605      122.80937       86.21838
H         39.95473      122.04365       86.42827
H         41.11347      122.91603       87.02257
O         43.63757      124.26811       86.41189
H         43.98531      123.47591       86.89213
H         43.19096      124.80717       87.11297
O         43.44690      126.73846       83.50836
H         44.11003      126.29576       84.09455
H         43.31833      127.63088       83.91618
O         42.89512      121.11185       84.37255
H         42.71558      120.56502       83.56723
H         43.85395      120.95969       84.56765

Ca 1.0



