%chk=apoCaM-CA-Ng.loop3.water5.frame89.chk
%nprocshared=20
%mem=10GB
%nosave
#b3lyp/svp scf=(tight,noincore,xqc) Test 
#IOP(5/87=12) Density=Current Pop=(MK,readradii) iop(6/33=2) iop(6/42=6)

apoCaM-CA-Ng.loop3.water5.frame89 

   0  1 
C         42.08896       72.00541       87.06243
C         42.27880       72.93475       85.89940
O         41.34718       73.08898       85.12642
H         41.23926       72.35651       87.68537
H         41.86198       70.98546       86.68585
H         42.99804       71.95434       87.69697
N         43.46316       73.59330       85.71482
C         43.74788       74.51900       84.61512
C         43.84238       73.83863       83.24451
O         44.04916       74.54711       82.26916
C         42.74141       75.69750       84.60258
C         42.72566       76.42867       85.91739
O         43.74069       76.96071       86.33839
O         41.58730       76.50842       86.63283
H         44.21146       73.45388       86.41070
H         44.75492       74.95928       84.79136
H         41.71749       75.34159       84.36859
H         43.02362       76.42324       83.80994
N         43.74318       72.48447       83.08678
C         43.81912       71.79826       81.79473
C         42.50000       71.11605       81.44900
O         42.42861       70.46559       80.41536
C         44.97842       70.78037       81.81828
C         46.34290       71.49050       81.77569
C         47.52646       70.50729       81.72583
C         47.76486       69.71602       83.02463
N         48.13880       70.59115       84.13840
H         43.60249       71.88726       83.91347
H         44.00102       72.51106       80.96040
H         44.92564       70.14224       80.90889
H         44.87665       70.12307       82.70824
H         46.45706       72.20273       82.61752
H         46.37379       72.08485       80.83574
H         48.45311       71.07767       81.49933
H         47.36355       69.79377       80.88794
H         48.60176       69.00663       82.83897
H         46.87227       69.11348       83.29583
H         48.38569       70.00333       84.96654
H         48.97235       71.16804       83.87867
H         47.34466       71.21401       84.40605
N         41.39373       71.28733       82.22184
C         40.07430       70.76899       81.91151
C         39.18445       71.96641       81.60114
O         39.20776       72.93060       82.35495
C         39.59034       69.91710       83.10218
C         38.23053       69.35701       82.83590
O         37.28480       70.10498       82.71359
O         38.01429       68.04653       82.68079
H         41.45262       71.87170       83.06117
H         40.09732       70.10324       81.02042
H         39.56356       70.51512       84.03916
H         40.30455       69.07660       83.24330
N         38.40811       71.99291       80.47483
C         37.71122       73.18957       80.01130
C         36.75007       73.82650       81.00077
O         36.34590       74.95367       80.75504
H         38.36630       71.15417       79.87628
H         37.17480       72.97876       79.05975
H         38.49488       73.94506       79.79210
N         36.34636       73.18925       82.13242
C         35.57203       73.81235       83.19613
C         36.29372       73.61494       84.52292
O         36.63569       74.60691       85.15150
C         34.11357       73.31020       83.21846
C         33.93390       71.82858       83.42874
N         33.24784       71.36332       84.49841
O         34.39280       71.04038       82.61694
H         36.61859       72.21780       82.25782
H         35.49077       74.90798       83.01316
H         33.63726       73.57746       82.25052
H         33.57846       73.87110       84.01615
H         32.84518       72.01007       85.19227
H         33.11542       70.35048       84.63330
N         36.59158       72.36442       84.99309
C         37.31139       72.12280       86.23324
C         36.53654       71.23053       87.17472
O         35.47555       70.72986       86.82744
H         36.32519       71.53927       84.44405
H         37.53172       73.07662       86.75616
H         38.28010       71.62722       86.00601
N         37.02369       71.01997       88.42781
C         36.34462       70.20974       89.43467
C         36.51644       68.71440       89.13936
O         37.22333       68.33798       88.21469
C         36.86478       70.64761       90.83814
C         36.27877       69.92657       92.03482
C         34.89271       69.92363       92.29611
C         37.13487       69.22793       92.90232
C         34.38070       69.19288       93.37686
C         36.62246       68.51716       93.98796
C         35.24281       68.48506       94.22220
O         34.73827       67.77637       95.25251
H         37.88669       71.52075       88.69270
H         35.25810       70.44928       89.40701
H         36.64266       71.73048       90.95967
H         37.96995       70.52958       90.84436
H         34.20736       70.45064       91.64455
H         38.20427       69.22294       92.73369
H         33.31230       69.16714       93.55259
H         37.30031       67.98188       94.64009
H         35.30430       67.26389       95.84836
N         35.84852       67.81154       89.90415
C         35.84451       66.36475       89.76596
C         34.39174       65.98279       89.50758
O         34.10950       65.41741       88.46082
C         36.46637       65.73358       91.05246
C         37.95947       66.16017       91.15297
C         36.34835       64.19935       91.05481
C         38.66271       65.72697       92.44090
H         35.25360       68.17358       90.64417
H         36.45893       66.03920       88.89524
H         35.91560       66.12117       91.93898
H         38.03141       67.26568       91.11189
H         38.52358       65.75432       90.28433
H         36.73750       63.77327       92.00204
H         35.29359       63.88658       90.99586
H         36.89922       63.75534       90.20013
H         39.70330       66.11643       92.43543
H         38.13772       66.13962       93.32514
H         38.72128       64.62449       92.52936
N         33.40173       66.37527       90.37068
C         31.98203       66.27646       90.03612
C         31.47108       64.85250       89.99247
O         30.36246       64.65639       89.50975
C         31.13424       67.10885       91.01004
O         31.55867       68.44455       90.97554
H         33.66071       66.86632       91.23819
H         31.85166       66.72183       89.02351
H         31.24844       66.70281       92.04018
H         30.06563       67.05767       90.70058
H         30.96830       68.94005       91.60005
N         32.21466       63.80549       90.44921
C         31.82983       62.41154       90.31643
C         31.67536       62.08720       88.84484
O         30.63134       61.62287       88.41664
C         30.58452       62.08677       91.15532
H         33.12857       63.98915       90.87839
H         32.65711       61.78155       90.71286
H         30.78153       62.32972       92.22115
H         29.69577       62.65707       90.81853
H         30.35415       61.00262       91.08199
N         32.72729       62.33506       88.01150
C         32.68953       62.06455       86.57765
C         34.05268       62.26094       85.93874
O         34.92483       62.89292       86.51362
C         31.67565       62.97081       85.86275
H         33.59056       62.69622       88.43939
H         32.41542       60.99505       86.45051
H         31.64924       62.74417       84.77558
H         30.65074       62.83259       86.25956
H         31.96012       64.03811       85.99458
N         34.30756       61.66806       84.73619
C         35.59304       61.73486       84.05263
C         36.69797       61.26268       84.98014
O         37.68052       61.96831       85.17341
C         35.83336       63.14999       83.48839
C         34.71449       63.53089       82.50916
C         34.92622       64.89313       81.94704
O         33.99258       65.84549       82.13729
O         35.93050       65.13727       81.29736
H         33.56928       61.09648       84.30130
H         35.55876       61.03433       83.18777
H         36.80850       63.16912       82.95195
H         35.87594       63.89408       84.31442
H         33.73350       63.51612       83.03070
H         34.68434       62.80619       81.66814
N         36.56229       60.07473       85.63140
C         37.52832       59.56766       86.58280
H         38.41552       60.22803       86.67945
H         37.04625       59.48466       87.58003
H         37.86772       58.56222       86.26111
H         35.71128       59.51249       85.47539
Ca        35.90403       67.80337       81.94535
O         32.87272       68.66005       81.21309
H         32.49563       69.34738       81.81738
H         32.23228       68.61556       80.45960
O         35.34025       70.29461       79.72572
H         35.73916       70.25760       78.82044
H         34.38352       70.49325       79.56605
O         38.03114       68.22959       79.69450
H         37.88721       68.79608       78.89592
H         39.01493       68.16372       79.78069
O         34.77663       67.80872       84.67246
H         35.11759       68.60975       85.14314
H         35.15425       67.04387       85.17498
O         35.28541       67.12510       79.04149
H         34.43417       67.40100       78.61884
H         35.40808       66.18197       78.76664

Ca 1.0



