%chk=apoCaM-CA-Ng.loop4.water5.frame897.chk
%nprocshared=20
%mem=10GB
%nosave
#b3lyp/svp scf=(tight,noincore,xqc) Test 
#IOP(5/87=12) Density=Current Pop=(MK,readradii) iop(6/33=2) iop(6/42=6)

apoCaM-CA-Ng.loop4.water5.frame897 

   -3  1 
C         -0.51052        0.00468       21.80756
C         -1.90313       -0.21344       21.29670
O         -2.21289       -1.32425       20.89130
H          0.22591       -0.19126       21.00327
H         -0.37011        1.04499       22.16738
H         -0.31959       -0.69045       22.65206
N         -2.81515        0.80071       21.31924
C         -4.20386        0.65436       20.90405
C         -4.84295       -0.44341       21.73726
O         -5.32965       -1.42869       21.20020
C         -4.30288        0.43556       19.37493
C         -5.71515        0.49769       18.84461
O         -6.76334        0.72734       19.66128
O         -5.91178        0.35893       17.64821
H         -2.52836        1.71771       21.69443
H         -4.72590        1.61377       21.12429
H         -3.85321       -0.53958       19.09510
H         -3.73072        1.24308       18.86817
N         -4.84806       -0.31505       23.09228
C         -5.43525       -1.29657       24.00097
C         -6.89215       -0.95227       24.28705
O         -7.27197        0.19357       24.08993
C         -4.57916       -1.48997       25.30729
C         -3.92369       -0.20825       25.90218
C         -3.47037       -2.52357       25.06010
C         -4.88562        0.92543       26.25500
H         -4.48864        0.57074       23.46980
H         -5.48383       -2.26176       23.47146
H         -5.22342       -1.92717       26.09612
H         -3.15127        0.18355       25.20470
H         -3.39214       -0.48954       26.83838
H         -3.91660       -3.49055       24.74140
H         -2.76445       -2.17349       24.27852
H         -2.90752       -2.71602       25.99992
H         -5.64048        0.58492       26.99128
H         -4.30388        1.76403       26.69592
H         -5.39758        1.32475       25.36009
N         -7.81303       -1.87965       24.71196
C         -7.56493       -3.31639       24.90973
C         -7.24015       -4.08214       23.62371
O         -6.82282       -5.22837       23.71925
C         -8.76532       -4.00352       25.60293
C        -10.00443       -4.07281       24.74016
O        -10.46537       -5.15849       24.42571
O        -10.61934       -2.95133       24.31944
H         -8.75550       -1.51868       24.91901
H         -6.70676       -3.41541       25.60062
H         -9.00398       -3.47211       26.54885
H         -8.46473       -5.04123       25.87121
N         -7.41214       -3.52580       22.39257
C         -7.05183       -4.18786       21.15152
C         -7.87223       -5.42485       20.86307
O         -9.09136       -5.33252       20.83775
H         -7.78679       -2.56977       22.31487
H         -5.96366       -4.41395       21.14803
H         -7.24430       -3.47913       20.31655
N         -7.25157       -6.59003       20.51008
C         -7.96375       -7.74270       19.96124
C         -7.62361       -9.08002       20.62412
O         -8.21180      -10.07286       20.21554
C         -7.73915       -7.76334       18.42467
C         -6.30102       -7.61625       17.97790
O         -5.96957       -6.64243       17.32025
O         -5.37513       -8.53916       18.27705
H         -6.22038       -6.60611       20.48444
H         -9.06115       -7.62643       20.10276
H         -8.29003       -6.89014       18.00948
H         -8.18893       -8.67475       17.97541
N         -6.72468       -9.21168       21.64660
C         -6.42010      -10.49870       22.28107
C         -5.68499      -11.49734       21.38534
O         -5.35697      -12.57666       21.85522
H         -6.25761       -8.37474       22.02313
H         -7.36074      -10.95343       22.66097
H         -5.75925      -10.30874       23.15470
N         -5.36474      -11.18706       20.10128
C         -4.58918      -11.98471       19.16247
C         -3.15232      -12.14919       19.61499
O         -2.56335      -13.20206       19.41116
C         -5.27040      -13.30359       18.74289
C         -6.68439      -13.06108       18.18777
C         -7.28038      -14.27845       17.52063
N         -8.51820      -14.20633       16.98013
O         -6.64968      -15.32341       17.44279
H         -5.64593      -10.27783       19.74478
H         -4.51064      -11.37006       18.23661
H         -5.31727      -14.02331       19.58901
H         -4.64523      -13.74869       17.93662
H         -6.64496      -12.25594       17.42315
H         -7.34847      -12.73247       19.01673
H         -9.06400      -13.33374       17.03338
H         -8.93040      -15.02176       16.50286
N         -2.51372      -11.10091       20.20697
C         -1.09166      -11.09502       20.53110
C         -0.38212       -9.85412       19.97535
O          0.83702       -9.81224       20.08077
C         -0.87791      -11.20468       22.06886
C         -1.54921      -10.05854       22.84559
C         -1.38175      -12.55581       22.59833
H         -3.07565      -10.27649       20.45545
H         -0.59694      -11.97517       20.06259
H          0.21572      -11.16601       22.27209
H         -2.65278      -10.08174       22.72212
H         -1.32522      -10.15150       23.92947
H         -1.16918       -9.07535       22.50123
H         -2.47553      -12.66589       22.44219
H         -0.85993      -13.38839       22.07959
H         -1.16993      -12.64506       23.68542
N         -1.05552       -8.78154       19.44644
C         -0.40064       -7.52975       19.07053
C         -0.94701       -7.01910       17.72703
O         -1.88447       -7.61000       17.20403
C         -0.70825       -6.52547       20.20855
C          0.14446       -5.28358       20.28604
N         -0.23544       -4.26729       21.09347
O          1.19073       -5.19477       19.66263
H         -2.08229       -8.77859       19.41972
H          0.69752       -7.69115       19.00313
H         -0.56316       -7.02613       21.19093
H         -1.78366       -6.25034       20.13850
H         -1.11278       -4.32490       21.63138
H          0.33581       -3.41268       21.16488
N         -0.41503       -5.92423       17.10676
C         -0.94010       -5.37786       15.85083
C          0.13513       -4.62210       15.07673
O          1.24856       -4.49599       15.57148
C         -2.19719       -4.49978       16.11456
C         -1.88907       -3.09793       16.61996
C         -1.13706       -2.88525       17.78462
C         -2.35428       -1.97586       15.90525
C         -0.83272       -1.59149       18.21114
C         -2.06934       -0.67956       16.34743
C         -1.30172       -0.48278       17.49849
O         -1.01848        0.77068       17.90661
H          0.42369       -5.50293       17.51511
H         -1.23509       -6.23844       15.21028
H         -2.87211       -5.02353       16.82550
H         -2.75648       -4.40528       15.15881
H         -0.77057       -3.71311       18.35905
H         -2.94267       -2.09982       15.00502
H         -0.23185       -1.45559       19.09798
H         -2.43757        0.17231       15.78905
H         -0.47856        0.95182       18.68887
N         -0.11546       -4.11202       13.83596
C          0.91333       -3.43561       13.05365
C          0.48034       -2.01843       12.70473
O         -0.19619       -1.85182       11.69860
C          1.23832       -4.23416       11.77548
C          1.76130       -5.64209       12.09242
C          2.13522       -6.36767       10.83291
O          3.01289       -5.92752       10.10698
O          1.51199       -7.51470       10.50323
H         -1.05140       -4.23332       13.41869
H          1.86316       -3.39625       13.60931
H          2.02070       -3.67944       11.21018
H          0.33164       -4.31900       11.13575
H          0.97593       -6.21827       12.62814
H          2.65861       -5.57612       12.74506
N          0.77247       -0.92581       13.47332
C          1.45224       -0.95813       14.76912
C          2.90851       -1.38759       14.68996
O          3.46151       -1.49628       13.60320
C          1.33805        0.42226       15.46203
C          2.12038        1.54619       14.75729
C          1.82916        2.87011       15.40238
O          2.11132        3.06907       16.70403
O          1.32866        3.77152       14.74867
H          0.39332       -0.02439       13.14401
H          0.90164       -1.68987       15.39922
H          1.69078        0.34743       16.51382
H          0.26313        0.69822       15.48339
H          1.83673        1.60534       13.68576
H          3.21173        1.34650       14.81519
N          3.58708       -1.66663       15.83730
C          4.96624       -2.10194       15.84028
H          5.61528       -1.31506       15.40242
H          5.29675       -2.29742       16.88329
H          5.07030       -3.04153       15.25669
H          3.10153       -1.58833       16.74379
Ca        -0.07731        5.35320       17.13015
O         -2.89747        6.10415       15.89108
H         -3.13133        7.06304       15.81434
H         -3.46806        5.76642       16.62649
O         -0.46008        6.26916       13.87659
H         -0.55341        7.25112       13.79041
H         -0.68703        5.91817       12.97898
O          2.54165        6.44513       15.77727
H          3.37224        6.83830       15.40941
H          2.57348        6.65579       16.74431
O         -2.07293        3.15423       16.57601
H         -2.89454        3.01000       16.04347
H         -1.34547        2.77996       16.01808
O         -0.12460        8.31498       16.54579
H          0.72625        8.79083       16.37314
H         -0.82964        8.96989       16.31367

Ca 1.0



