%chk=apoCaM-CA-Ng.loop2.water5.frame1108.chk
%nprocshared=20
%mem=10GB
%nosave
#b3lyp/svp scf=(tight,noincore,xqc) Test 
#IOP(5/87=12) Density=Current Pop=(MK,readradii) iop(6/33=2) iop(6/42=6)

apoCaM-CA-Ng.loop2.water5.frame1108 

   -2  1 
C         41.19058      -18.53339       64.60474
C         42.53317      -19.11970       64.28032
O         43.50581      -18.72492       64.90723
H         40.49084      -19.32186       64.94093
H         41.28691      -17.78709       65.42216
H         40.78149      -18.02002       63.71095
N         42.71221      -20.06108       63.31274
C         41.65039      -20.66648       62.50734
C         42.21202      -21.01904       61.12498
O         43.12126      -20.32698       60.68628
C         40.99575      -21.84219       63.28962
C         42.00557      -22.88631       63.65998
O         41.89191      -24.16041       63.25260
O         42.97146      -22.57754       64.34005
H         43.67659      -20.39294       63.16096
H         40.86407      -19.90954       62.30629
H         40.16416      -22.29194       62.71043
H         40.55291      -21.46358       64.23128
N         41.71336      -22.03833       60.35957
C         42.21348      -22.36929       59.02696
C         43.68584      -22.73876       59.08309
O         44.50067      -22.08790       58.44138
C         41.92809      -21.22783       58.03256
H         40.94333      -22.61822       60.71623
H         41.65847      -23.25677       58.64857
H         42.45935      -20.29312       58.30489
H         42.25701      -21.52468       57.01287
H         40.83835      -21.01897       57.99647
N         44.09347      -23.80663       59.82606
C         45.49879      -24.20547       59.91991
C         45.66479      -25.59563       60.54106
O         44.68995      -26.26612       60.85281
C         46.32674      -23.12787       60.69566
C         45.94041      -23.01916       62.14425
O         45.99285      -24.10388       62.94293
O         45.53499      -21.95966       62.59084
H         43.36707      -24.35564       60.31092
H         45.91345      -24.28453       58.89162
H         46.22043      -22.13762       60.20701
H         47.40814      -23.35867       60.65735
N         46.91599      -26.06623       60.77949
C         47.17854      -27.31020       61.48854
C         48.64666      -27.51811       61.85351
O         48.89578      -28.32727       62.73566
H         47.68126      -25.45109       60.51094
H         46.78403      -28.18743       60.93173
H         46.62703      -27.24912       62.45196
N         49.66976      -26.84702       61.23872
C         51.06678      -26.93494       61.63205
C         51.59553      -25.52972       61.88310
O         51.55010      -24.71444       60.97058
C         51.87678      -27.57618       60.48822
C         51.42326      -28.98167       60.18609
N         51.54097      -29.96159       61.11164
O         50.95571      -29.24061       59.08709
H         49.49424      -26.24939       60.42498
H         51.19148      -27.55156       62.54893
H         52.95526      -27.60118       60.75457
H         51.76248      -26.95298       59.57220
H         51.94657      -29.76683       62.03826
H         51.23618      -30.92237       60.89649
N         52.13676      -25.17195       63.08363
C         52.74011      -23.85975       63.31154
C         53.98518      -23.66898       62.45511
O         54.32778      -24.57954       61.71278
H         52.14394      -25.85418       63.85757
H         53.05041      -23.79277       64.37696
H         51.99210      -23.06364       63.11123
N         54.78024      -22.55940       62.51044
C         54.58039      -21.37790       63.34538
C         54.79068      -20.11905       62.50339
O         55.80544      -20.03405       61.82431
C         55.61319      -21.40697       64.49504
C         55.46934      -20.18838       65.41966
O         55.41863      -22.57719       65.24712
H         55.64615      -22.58598       61.94802
H         53.57247      -21.37536       63.81483
H         56.63732      -21.41324       64.05224
H         56.25172      -22.73084       65.76458
H         55.65147      -19.24391       64.86525
H         54.45074      -20.15560       65.86228
H         56.21438      -20.24766       66.24016
N         53.91797      -19.06960       62.56438
C         54.11779      -17.80931       61.83083
C         54.37052      -16.65103       62.79835
O         54.08134      -16.81163       63.97645
C         52.88658      -17.50509       60.92378
C         51.58255      -17.36067       61.76101
C         52.75740      -18.58612       59.83787
C         50.38807      -16.87409       60.95226
H         53.11001      -19.15401       63.19762
H         55.02454      -17.89510       61.19724
H         53.06146      -16.53867       60.40784
H         51.74241      -16.60548       62.55969
H         51.30688      -18.32284       62.23938
H         52.54829      -19.57892       60.28957
H         51.94895      -18.34035       59.12075
H         53.70090      -18.65035       59.25484
H         50.63465      -15.89446       60.49752
H         50.10606      -17.60284       60.16677
H         49.51342      -16.74321       61.62391
N         54.91886      -15.44810       62.42616
C         55.55338      -15.15769       61.13773
C         55.48221      -13.67146       60.78209
O         55.71633      -12.84220       61.65013
C         57.03826      -15.59366       61.16869
C         57.87787      -14.86415       62.18736
O         57.61382      -14.98084       63.50252
O         58.81963      -14.17769       61.82340
H         55.07558      -14.76714       63.18585
H         55.09819      -15.74797       60.32019
H         57.46904      -15.41833       60.15680
H         57.10667      -16.68236       61.37539
N         55.27754      -13.27448       59.48757
C         55.38292      -11.87870       59.03537
C         55.13898      -11.79835       57.52356
O         55.75030      -12.59489       56.82238
C         56.81024      -11.31826       59.29153
C         56.84835       -9.82692       59.05353
C         57.23348       -9.29711       57.80975
C         56.45904       -8.95041       60.08245
C         57.21971       -7.91305       57.60053
C         56.45866       -7.56884       59.87244
C         56.83471       -7.05037       58.63120
H         55.08803      -14.00896       58.78841
H         54.66162      -11.26521       59.60802
H         57.54992      -11.84448       58.64825
H         57.16054      -11.48579       60.32868
H         57.52261       -9.95333       56.99888
H         56.15616       -9.33867       61.04726
H         57.50204       -7.50808       56.63753
H         56.16084       -6.90094       60.67074
H         56.82448       -5.98025       58.46814
N         54.36067      -10.84638       56.90999
C         53.67927       -9.72316       57.54391
C         52.58264      -10.15850       58.47443
O         52.54077       -9.71877       59.61358
C         53.08759       -8.93283       56.36278
C         54.07454       -9.23771       55.25630
C         54.28261      -10.72978       55.46580
H         54.42671       -9.08384       58.05541
H         52.12025       -9.37836       56.03645
H         52.91537       -7.85544       56.57244
H         53.73237       -8.96109       54.23627
H         55.03081       -8.71204       55.47799
H         53.38942      -11.29513       55.11437
H         55.18947      -11.08030       54.92798
N         51.66777      -11.06136       58.03484
C         50.57578      -11.56568       58.84367
C         49.42534      -10.56724       58.78725
O         48.90681      -10.35353       57.70011
C         50.16112      -12.93292       58.25943
C         49.08085      -13.66562       59.05163
C         48.75078      -14.95900       58.35483
O         49.71465      -15.86969       58.11468
O         47.61282      -15.17710       57.97319
H         51.79190      -11.44880       57.08627
H         50.94704      -11.75209       59.87434
H         51.06855      -13.57994       58.23713
H         49.81510      -12.79322       57.21064
H         48.16693      -13.03832       59.12295
H         49.44880      -13.87237       60.07883
N         48.95473       -9.89141       59.87307
C         49.50629      -10.00491       61.20369
H         50.56655       -9.68183       61.20472
H         48.94878       -9.33786       61.89591
H         49.42247      -11.04811       61.57001
H         48.16631       -9.23842       59.73946
Ca        43.95753      -25.00172       63.23818
O         41.46788      -26.42941       65.15062
H         40.57208      -26.75818       64.88662
H         41.29242      -25.78885       65.88500
O         44.54070      -24.77721       66.50220
H         43.77720      -24.52451       67.07943
H         45.04723      -25.43916       67.03692
O         46.75337      -26.15121       64.85902
H         47.21654      -26.94084       65.23459
H         47.45098      -25.45020       64.81620
O         44.13333      -27.93410       65.71561
H         43.63226      -28.02145       66.56514
H         45.05418      -28.21872       65.94110
O         42.95864      -28.02371       62.67205
H         42.18399      -27.94592       62.06022
H         42.81607      -28.88059       63.14701

Ca 1.0



