%chk=apoCaM-CA-Ng.loop4.water2.frame94.chk
%nprocshared=20
%mem=10GB
%nosave
#b3lyp/svp scf=(tight,noincore,xqc) Test 
#IOP(5/87=12) Density=Current Pop=(MK,readradii) iop(6/33=2) iop(6/42=6)

apoCaM-CA-Ng.loop4.water2.frame94 

   -3  1 
C         31.98933       43.56435       90.39918
C         30.77047       43.63856       89.53059
O         29.68157       43.56162       90.06684
H         32.92050       43.66178       89.80445
H         31.95577       44.38717       91.14522
H         32.00381       42.59225       90.93506
N         30.87786       43.80817       88.18188
C         29.75229       43.94069       87.26045
C         28.93454       45.17619       87.56992
O         27.75610       45.06371       87.84591
C         28.96435       42.61422       87.04924
C         28.25543       41.94301       88.20493
O         27.12117       42.44072       88.74053
O         28.61752       40.82883       88.54829
H         31.82235       43.88593       87.77541
H         30.17479       44.13825       86.24881
H         29.70804       41.88678       86.65446
H         28.21339       42.76960       86.24361
N         29.53296       46.40436       87.47710
C         28.90681       47.72008       87.64467
C         27.87255       47.96508       86.54782
O         28.17725       48.71661       85.63132
C         28.42186       47.96564       89.10112
C         27.76637       49.35880       89.30910
C         29.58944       47.76517       90.08763
C         28.66772       50.56315       89.01731
H         30.53482       46.41642       87.22916
H         29.71977       48.45910       87.45980
H         27.65042       47.21171       89.35197
H         27.43036       49.43662       90.36519
H         26.86282       49.43839       88.66891
H         29.24949       47.93689       91.12811
H         29.98308       46.72878       90.02558
H         30.42729       48.46010       89.87113
H         28.10286       51.49755       89.22060
H         29.56507       50.56462       89.66858
H         28.98016       50.57893       87.95371
N         26.65488       47.35139       86.54094
C         25.76624       47.36974       85.38841
C         24.80011       48.55354       85.41650
O         24.82930       49.30796       84.45407
C         25.10423       45.98321       85.21441
C         24.31245       45.88268       83.94082
O         24.86068       46.04073       82.86114
O         22.99926       45.58942       83.98332
H         26.38214       46.76352       87.33377
H         26.39370       47.47593       84.47191
H         24.45720       45.73283       86.07272
H         25.90281       45.20899       85.17823
N         23.92421       48.83971       86.42933
C         23.80414       48.08121       87.66853
C         22.80201       48.67023       88.65539
O         22.21181       49.69705       88.35009
H         23.33419       49.67486       86.29575
H         24.78542       48.09577       88.16708
H         23.48597       47.06336       87.41939
N         22.53534       48.12283       89.88617
C         23.07836       46.89306       90.46827
C         24.59873       46.96329       90.60621
O         25.28164       46.37370       89.78254
C         22.56403       45.62599       89.75195
C         22.82410       44.39272       90.58379
O         24.08126       44.02659       90.89733
O         21.88792       43.72595       90.99482
H         21.86163       48.63300       90.47967
H         22.62215       46.77062       91.47014
H         23.01513       45.49007       88.75618
H         21.46310       45.72486       89.62146
N         25.23653       47.65778       91.59592
C         24.58728       48.26911       92.74190
C         24.74536       49.75857       92.79067
O         25.35838       50.35921       91.91926
H         26.26664       47.70148       91.57457
H         25.01958       47.82554       93.66521
H         23.50423       48.08311       92.76984
N         24.14435       50.42403       93.81364
C         24.14626       51.87330       93.95076
C         25.54050       52.42820       94.20472
O         25.71333       53.63189       94.07092
C         23.19037       52.24844       95.11932
C         23.03339       53.74545       95.44079
C         22.42756       54.57985       94.34023
N         22.26680       55.90889       94.52974
O         22.07282       54.07453       93.28572
H         23.61697       49.86144       94.50136
H         23.76214       52.29121       92.99666
H         23.57037       51.75504       96.04288
H         22.18175       51.82854       94.90772
H         24.01662       54.17033       95.72330
H         22.37373       53.83439       96.33110
H         22.55965       56.35087       95.41384
H         21.85357       56.49787       93.79228
N         26.56046       51.63585       94.64665
C         27.85625       52.16939       95.05829
C         28.02726       52.07165       96.57102
O         29.00387       52.61091       97.07190
C         29.02782       51.48791       94.30066
C         28.94192       51.76030       92.79255
C         29.09599       49.97479       94.56005
H         26.38827       50.63084       94.78471
H         27.90614       53.25863       94.83614
H         29.97890       51.93814       94.66323
H         29.81728       51.31410       92.27360
H         28.01536       51.32787       92.35979
H         28.95083       52.85463       92.60113
H         28.19219       49.46494       94.17067
H         29.98281       49.54117       94.05128
H         29.18714       49.76398       95.64622
N         27.11359       51.43417       97.36605
C         27.17924       51.42758       98.81939
C         27.37517       50.02533       99.35575
O         28.29711       49.82916      100.13607
C         25.87568       52.01204       99.40571
C         25.59895       53.41649       98.93225
N         26.46158       54.42547       99.19395
O         24.57134       53.64734       98.31377
H         26.30583       50.95730       96.94631
H         28.02428       52.05224       99.18478
H         25.94035       52.02002      100.51591
H         25.01790       51.36318       99.11986
H         27.32883       54.25769       99.72316
H         26.25751       55.38233       98.86898
N         26.51992       49.01174       99.02806
C         26.53535       47.71844       99.70477
C         26.84198       46.57839       98.76045
O         26.39856       46.62989       97.62300
C         25.14205       47.44709      100.31239
C         24.58667       48.61556      101.08900
C         23.36907       49.19627      100.68937
C         25.26328       49.13858      102.20126
C         22.83706       50.27898      101.38998
C         24.73005       50.22753      102.89943
C         23.51349       50.79969      102.49574
O         22.98540       51.84645      103.16054
H         25.77789       49.18203       98.33205
H         27.28169       47.71627      100.52873
H         25.19221       46.54930      100.96561
H         24.43660       47.21491       99.48182
H         22.82646       48.81144       99.83410
H         26.20265       48.70840      102.52356
H         21.89722       50.71244      101.07098
H         25.26241       50.62540      103.75334
H         23.41831       52.23711      103.93242
N         27.40711       45.43008       99.25251
C         27.52553       44.15318       98.54245
C         28.66621       44.08430       97.53607
O         29.39689       43.10251       97.57614
C         26.18562       43.68158       97.93306
C         25.08479       43.58704       99.00394
C         23.78830       43.11012       98.41981
O         22.69197       43.88946       98.48906
O         23.71529       42.01032       97.89533
H         27.66208       45.41802      100.25216
H         27.77562       43.37901       99.30573
H         26.33678       42.67190       97.49010
H         25.86074       44.35300       97.11268
H         24.91968       44.58412       99.46089
H         25.39770       42.88338       99.80583
N         28.88726       45.04781       96.59715
C         29.91388       44.92546       95.56391
C         31.32943       44.82381       96.12895
O         32.23530       44.53979       95.35609
C         29.87422       46.12759       94.58537
C         28.51154       46.44127       93.93446
C         27.98838       45.35206       93.05208
O         27.68859       44.26019       93.50671
O         27.82225       45.60264       91.74291
H         28.29270       45.87506       96.59327
H         29.70499       43.98919       95.00187
H         30.61944       45.96211       93.77484
H         30.18069       47.03759       95.14700
H         28.65572       47.34310       93.30722
H         27.74116       46.69851       94.68682
N         31.61405       45.05724       97.44291
C         32.95920       44.95049       97.96466
H         33.63003       45.66054       97.43606
H         32.96549       45.19480       99.04828
H         33.33590       43.91384       97.83233
H         30.87297       45.33408       98.10099
Ca        27.08775       44.04674       90.31238
O         24.40833       43.10649       88.03446
H         23.74405       43.54571       87.44719
H         23.87476       42.49096       88.59763
O         26.13616       41.43433       91.89680
H         26.78288       41.06430       91.24472
H         26.69379       41.71722       92.66443

Ca 1.0



