%chk=apoCaM-CA-Ng.loop3.water3.frame621.chk
%nprocshared=20
%mem=10GB
%nosave
#b3lyp/svp scf=(tight,noincore,xqc) Test 
#IOP(5/87=12) Density=Current Pop=(MK,readradii) iop(6/33=2) iop(6/42=6)

apoCaM-CA-Ng.loop3.water3.frame621 

   0  1 
C         91.91056       34.82689       73.10008
C         92.28088       35.71903       71.95129
O         91.65509       36.75563       71.78063
H         90.85573       34.49934       72.99351
H         92.55762       33.92478       73.13804
H         92.02782       35.38244       74.05389
N         93.30729       35.38297       71.12242
C         93.72944       36.21661       70.00513
C         92.61318       36.32094       68.97737
O         92.14733       35.29761       68.49585
C         95.02335       35.64135       69.38476
C         95.66138       36.53141       68.35090
O         96.84207       36.17643       67.81209
O         95.13108       37.57039       67.99497
H         93.82445       34.51008       71.31204
H         93.98817       37.22103       70.40192
H         94.82772       34.63973       68.94568
H         95.76928       35.52097       70.19635
N         92.14605       37.54284       68.59090
C         91.07737       37.72478       67.61044
C         91.41952       37.05673       66.29135
O         90.59581       36.30531       65.78706
C         90.78233       39.22568       67.36079
C         90.20517       39.92501       68.60422
C         89.80710       41.37875       68.30772
C         89.20637       42.04641       69.55505
N         88.77073       43.41310       69.26712
H         92.58657       38.37963       69.00142
H         90.13768       37.26705       67.99449
H         90.01689       39.29719       66.55555
H         91.70044       39.75022       67.01342
H         90.94592       39.91031       69.42585
H         89.29869       39.37358       68.93702
H         89.04983       41.38878       67.49312
H         90.69837       41.95423       67.97374
H         89.96554       42.06490       70.36867
H         88.33052       41.45649       69.90658
H         88.37086       43.83475       70.13679
H         89.58096       43.99336       68.95061
H         88.03037       43.40560       68.52805
N         92.61781       37.27679       65.68162
C         92.96580       36.73220       64.37162
C         94.06068       35.66799       64.43210
O         94.45900       35.19194       63.37840
C         93.29462       37.88945       63.40035
C         94.54565       38.66676       63.71751
O         95.41898       38.76664       62.87385
O         94.68813       39.31525       64.88752
H         93.30618       37.86129       66.17296
H         92.08475       36.21761       63.92890
H         92.43775       38.59680       63.39422
H         93.38984       37.47320       62.37275
N         94.54122       35.18289       65.61757
C         95.50502       34.08922       65.69530
C         96.88253       34.41776       65.14510
O         97.67791       33.49740       65.01734
H         94.15060       35.53300       66.49879
H         95.08726       33.22913       65.12688
H         95.62597       33.76094       66.74957
N         97.23590       35.68349       64.78192
C         98.47233       36.01671       64.08376
C         99.30992       37.04508       64.84107
O         98.81743       38.11106       65.18022
C         98.07146       36.54406       62.69391
C         99.20135       37.17891       61.92561
N         99.10935       38.47476       61.53882
O        100.20005       36.53015       61.65415
H         96.56990       36.45421       64.93789
H         99.10109       35.11483       63.91184
H         97.28171       37.29999       62.82528
H         97.63754       35.70718       62.10325
H         98.26925       39.03293       61.75544
H         99.87392       38.92699       61.01851
N        100.64159       36.80596       65.02371
C        101.60692       37.77049       65.53002
C        101.43055       38.09882       66.98830
O        101.37334       37.18392       67.79811
H        101.02886       35.90955       64.69144
H        101.59432       38.68638       64.89911
H        102.61839       37.32024       65.43295
N        101.42417       39.39847       67.40829
C        101.31761       39.76944       68.81753
C         99.95601       39.38826       69.37196
O         99.12297       38.87199       68.64279
C        101.60891       41.28173       69.03761
C        103.09425       41.58361       69.00626
C        103.82875       41.60499       67.80841
C        103.76605       41.83863       70.21904
C        105.20363       41.87196       67.82733
C        105.13786       42.09326       70.23561
C        105.86292       42.11055       69.03853
O        107.18941       42.35267       69.04146
H        101.52575       40.14245       66.70281
H        102.07204       39.20347       69.40976
H        101.26721       41.55886       70.05313
H        101.03482       41.93826       68.35259
H        103.34805       41.42713       66.85844
H        103.23208       41.82371       71.16168
H        105.75921       41.89009       66.89851
H        105.63490       42.27317       71.18109
H        107.68070       42.51121       69.86072
N         99.67990       39.60485       70.69068
C         98.42987       39.25782       71.34693
C         97.26511       40.00209       70.63695
O         96.45583       39.16222       69.86477
C         98.26054       37.70333       71.43615
C         97.00767       37.25789       72.24047
C         99.52883       37.04043       72.01120
C         96.99519       37.66119       73.71749
H        100.40209       40.03501       71.28697
H         98.51939       39.63859       72.38703
H         98.14119       37.30039       70.40675
H         96.93747       36.14950       72.19435
H         96.09099       37.65986       71.76844
H         99.40377       35.93737       72.04814
H        100.40903       37.24784       71.36672
H         99.75745       37.41600       73.02945
H         96.06439       37.28029       74.18767
H         97.85384       37.21937       74.26183
H         97.00992       38.76130       73.83773
N         96.51262       40.94039       71.49200
C         95.18243       41.32053       70.97356
C         94.86003       42.78180       71.25934
O         93.77294       43.20527       70.89895
C         94.10347       40.39008       71.56744
O         92.84929       40.67739       71.01595
H         96.45158       40.62087       72.48607
H         95.15934       41.22918       69.86321
H         94.07266       40.52425       72.67241
H         94.36102       39.33762       71.33389
H         92.19660       40.11684       71.51004
N         95.77020       43.63331       71.82769
C         95.49581       45.05818       72.01308
C         96.29148       45.86172       70.99196
O         97.21243       45.31320       70.40837
C         95.82607       45.46231       73.45314
H         96.71167       43.29350       72.06642
H         94.42195       45.25371       71.81865
H         95.20469       44.87264       74.16030
H         96.89730       45.26544       73.67184
H         95.63342       46.53738       73.63233
N         95.94153       47.12659       70.60172
C         94.82033       47.90712       71.11530
C         95.25461       49.34924       71.38564
O         96.32425       49.72591       70.91803
C         93.71373       47.87264       70.04984
H         96.47107       47.52540       69.80779
H         94.42182       47.46099       72.03951
H         94.08349       48.30253       69.09447
H         93.41234       46.81872       69.86532
H         92.80546       48.42545       70.34237
N         94.50814       50.26241       72.07540
C         93.28983       49.97422       72.82892
C         93.60471       49.08910       74.02064
O         92.98727       48.04104       74.16455
C         92.51907       51.26312       73.24792
C         93.11590       52.21749       74.30638
C         94.35910       52.93745       73.87091
O         95.49432       52.82374       74.58626
O         94.33823       53.65735       72.88507
H         94.86261       51.22607       72.08449
H         92.56682       49.45883       72.17240
H         91.54734       50.92053       73.66932
H         92.28212       51.84684       72.33106
H         93.29163       51.67190       75.25550
H         92.35341       52.99701       74.52268
N         94.57365       49.43920       74.90990
C         94.89529       48.64105       76.07097
H         95.72070       49.12080       76.63968
H         94.00747       48.56341       76.73321
H         95.22116       47.62687       75.76194
H         95.11531       50.30119       74.75676
Ca        96.71559       39.88833       67.71491
O         98.43270       42.17523       67.21479
H         99.25840       42.19797       66.66903
H         98.67432       42.62630       68.06204
O         97.64828       40.78357       64.66336
H         96.92099       41.43816       64.51473
H         97.51679       40.10261       63.95778
O         94.67400       41.62589       66.78685
H         95.20331       42.44243       66.60403
H         93.75371       41.84817       66.50013

Ca 1.0



