%chk=apoCaM-CA-Ng.loop1.water2.frame63.chk
%nprocshared=20
%mem=10GB
%nosave
#b3lyp/svp scf=(tight,noincore,xqc) Test 
#IOP(5/87=12) Density=Current Pop=(MK,readradii) iop(6/33=2) iop(6/42=6)

apoCaM-CA-Ng.loop1.water2.frame63 

   0  1 
C         48.54644       58.43668       87.51711
C         48.19663       59.06845       88.83475
O         47.15778       59.70635       88.92401
H         49.51541       57.89583       87.56824
H         47.75561       57.71602       87.22259
H         48.62897       59.22521       86.73971
N         49.03234       58.93960       89.90302
C         48.78885       59.55355       91.20628
C         49.87364       60.56776       91.56279
O         49.81004       61.12654       92.64849
C         48.66700       58.46631       92.30007
C         49.92929       57.68149       92.54486
O         50.52613       57.73704       93.75104
O         50.39993       56.96726       91.67480
H         49.89732       58.39412       89.77591
H         47.82131       60.10246       91.19971
H         47.84875       57.76163       92.03696
H         48.38393       58.96547       93.25241
N         50.88595       60.87218       90.69791
C         51.97460       61.79031       91.01000
C         51.66444       63.17199       90.45287
O         51.28058       63.22881       89.29205
C         53.27640       61.30500       90.32203
C         53.71550       59.86802       90.64454
C         54.04215       59.63376       92.12564
C         54.66715       58.24646       92.37344
N         53.76216       57.14623       92.03590
H         50.89930       60.44383       89.76182
H         52.15366       61.80985       92.09633
H         54.10579       61.99752       90.57834
H         53.13856       61.35120       89.21846
H         54.63478       59.67265       90.04923
H         52.92921       59.16265       90.30640
H         53.12685       59.74883       92.74470
H         54.78511       60.39475       92.44997
H         54.93380       58.17192       93.45059
H         55.60581       58.14812       91.78373
H         54.22666       56.23984       92.27186
H         52.88351       57.22587       92.59330
H         53.54317       57.13746       91.01470
N         51.86615       64.35376       91.11819
C         52.37430       64.56650       92.47386
C         53.69097       63.83056       92.73994
O         53.71845       62.96549       93.60652
C         51.34268       64.22473       93.56511
C         50.02226       64.92178       93.49716
O         49.61623       65.64701       92.43912
O         49.25236       64.76655       94.42915
H         51.68288       65.21526       90.57840
H         52.55839       65.65742       92.60178
H         51.79808       64.52105       94.52965
H         51.13737       63.13888       93.60463
N         54.85205       64.10607       92.09055
C         55.00814       65.17600       91.12159
C         56.45325       65.32839       90.66527
O         57.29361       64.52060       91.03597
H         55.67020       63.54184       92.36490
H         54.70240       66.10992       91.61544
H         54.35703       64.99643       90.23983
N         56.85646       66.33786       89.84485
C         55.99213       67.39504       89.33668
C         55.51729       68.28963       90.47399
O         56.34541       68.84192       91.18602
C         56.76764       68.22822       88.29085
C         55.89155       69.22439       87.57847
O         55.73310       69.14170       86.37073
O         55.28993       70.21912       88.25790
H         57.84942       66.33962       89.55862
H         55.13427       66.92649       88.80476
H         57.18505       67.53012       87.53074
H         57.62072       68.75710       88.77003
N         54.18721       68.51014       90.66969
C         53.66949       69.42347       91.67693
C         53.82866       68.93342       93.10135
O         54.34626       67.85306       93.34072
H         53.51012       68.07051       90.02798
H         52.57897       69.55417       91.50674
H         54.15427       70.41661       91.55618
N         53.35620       69.71465       94.11472
C         53.37041       69.33050       95.52865
C         52.47350       68.11300       95.76288
O         51.82833       67.64602       94.83079
C         52.94714       70.56174       96.39404
C         53.99624       71.67606       96.30133
O         52.81972       70.23638       97.75389
H         52.95443       70.62835       93.85342
H         54.40543       69.04309       95.82069
H         51.97753       70.96172       96.00872
H         51.84929       70.15154       97.95107
H         54.96913       71.31088       96.69876
H         54.14745       72.01857       95.25819
H         53.67655       72.54621       96.91253
N         52.40307       67.53247       96.99428
C         51.63527       66.33391       97.29238
C         50.45604       66.71451       98.17072
O         50.66072       67.25413       99.25122
C         52.56479       65.28129       97.97637
C         53.76167       64.93209       97.04962
C         51.77510       64.01643       98.36604
C         54.81172       64.03033       97.70105
H         52.94155       67.93369       97.77499
H         51.23488       65.88334       96.35972
H         52.96942       65.73356       98.91004
H         54.28923       65.86627       96.76219
H         53.39816       64.44480       96.12328
H         51.34923       63.52549       97.46522
H         52.41374       63.29113       98.90771
H         50.95220       64.27304       99.06209
H         54.39896       63.03371       97.95356
H         55.64950       63.87295       96.98895
H         55.21372       64.51031       98.61837
N         49.18509       66.41770       97.76950
C         47.99248       66.66375       98.57639
C         47.41371       65.35936       99.11359
O         46.45514       65.41547       99.86908
C         46.92745       67.44877       97.76909
C         46.36120       66.65021       96.58005
O         47.48699       68.65272       97.31410
H         49.06494       65.92802       96.87088
H         48.26337       67.27387       99.46715
H         46.08503       67.67521       98.46451
H         46.73022       69.24097       97.05365
H         45.89552       65.70500       96.92853
H         45.57357       67.24161       96.06873
H         47.14568       66.40865       95.83555
N         47.96217       64.14972       98.78242
C         47.53189       62.85555       99.29420
C         46.13540       62.48350       98.79779
O         45.45784       63.29960       98.18681
C         47.69515       62.78949      100.84631
C         49.08499       63.26312      101.30759
O         47.46678       61.49235      101.33436
H         48.76674       64.11330       98.14558
H         48.22236       62.10098       98.85279
H         46.95051       63.45899      101.32438
H         48.17366       60.90240      100.95925
H         49.88347       62.64133      100.84979
H         49.25582       64.32470      101.03108
H         49.16090       63.18663      102.41287
N         45.66762       61.21938       98.99205
C         44.36111       60.74185       98.53903
C         44.17019       60.73888       97.02408
O         43.04135       60.51518       96.61470
C         44.05681       59.32145       99.08417
C         45.13007       58.26601       98.74221
C         44.69239       56.86808       99.19774
C         45.84494       55.84701       99.19118
N         46.80843       56.10410      100.26932
H         46.27325       60.58071       99.51269
H         43.59249       61.42834       98.96028
H         43.06693       58.99367       98.69613
H         43.97661       59.37438      100.19208
H         46.05838       58.53473       99.26801
H         45.34626       58.23884       97.65156
H         43.88750       56.53025       98.50850
H         44.27388       56.89904      100.22664
H         46.35883       55.83812       98.20438
H         45.40638       54.83944       99.35943
H         47.31429       57.00634      100.13235
H         46.31604       56.11709      101.19301
H         47.51784       55.33715      100.28695
N         45.17399       60.99326       96.13445
C         44.95329       61.04207       94.68728
C         44.71555       59.65213       94.10279
O         45.65868       59.03064       93.63195
C         46.13164       61.74656       93.96871
C         46.42117       63.18345       94.45578
C         45.27826       64.16369       94.29964
O         45.41747       65.28264       93.55277
O         44.23807       63.99343       94.91367
H         46.11488       61.20237       96.49365
H         44.05822       61.65620       94.46520
H         45.92332       61.78048       92.87660
H         47.05957       61.14881       94.11921
H         47.27947       63.53887       93.86114
H         46.73231       63.17027       95.52167
N         43.45955       59.12147       94.05633
C         43.15366       57.82878       93.47522
H         42.41270       57.96388       92.65924
H         44.04895       57.32718       93.05185
H         42.71332       57.16808       94.25112
H         42.66590       59.65566       94.43366
Ca        47.36952       65.78616       92.53493
O         47.67759       63.71037       90.52032
H         48.09932       63.43680       89.66799
H         48.04037       63.08196       91.19399
O         47.49190       68.60451       93.96363
H         46.68475       69.01476       94.36460
H         48.20037       68.73054       94.64375

Ca 1.0



