%chk=apoCaM-CA-Ng.loop1.water5.frame541.chk
%nprocshared=20
%mem=10GB
%nosave
#b3lyp/svp scf=(tight,noincore,xqc) Test 
#IOP(5/87=12) Density=Current Pop=(MK,readradii) iop(6/33=2) iop(6/42=6)

apoCaM-CA-Ng.loop1.water5.frame541 

   0  1 
C         99.95610       32.36595       53.18715
C        100.37046       33.28787       52.08120
O        101.54002       33.31540       51.72734
H         99.17881       31.66577       52.81431
H        100.82190       31.77860       53.55810
H         99.53658       32.96066       54.02573
N         99.43473       34.07657       51.48397
C         99.68931       35.02253       50.40285
C        100.17670       34.32656       49.13464
O        100.54385       33.16039       49.15998
C        100.64229       36.14718       50.88318
C        100.76628       37.30070       49.92601
O        101.97043       37.64247       49.43038
O         99.78217       37.95532       49.62008
H         98.46172       34.00978       51.82293
H         98.70386       35.48480       50.16328
H        101.65189       35.72849       51.07684
H        100.25110       36.56073       51.83730
N        100.12208       34.99712       47.95514
C        100.51154       34.46939       46.65625
C         99.77399       33.18969       46.31248
O        100.37694       32.26010       45.79583
C        102.04979       34.40389       46.48129
C        102.67515       35.77626       46.81852
C        103.83692       36.20162       45.91588
C        105.11477       35.37065       46.02237
N        106.12792       35.91862       45.11518
H         99.71924       35.94505       47.95207
H        100.16084       35.21552       45.90691
H        102.22425       34.16040       45.41092
H        102.52965       33.60827       47.09549
H        102.93595       35.81796       47.89865
H        101.91744       36.56726       46.63220
H        104.08995       37.25149       46.18104
H        103.47795       36.19157       44.86303
H        104.91021       34.31181       45.75281
H        105.49572       35.40858       47.06655
H        105.79106       35.86383       44.12557
H        106.32394       36.91912       45.35382
H        107.01409       35.37287       45.20244
N         98.43164       33.11296       46.54378
C         97.58066       31.98750       46.16300
C         96.14058       32.34308       46.55983
O         95.91800       32.50885       47.75172
C         98.02937       30.66217       46.83718
C         97.27040       29.44505       46.37352
O         96.36024       29.52908       45.56637
O         97.62900       28.23359       46.83660
H         97.98454       33.93372       46.98296
H         97.71411       31.86043       45.07835
H         97.94502       30.74518       47.94132
H         99.08839       30.45505       46.59371
N         95.11360       32.56113       45.68159
C         95.15535       32.38434       44.24075
C         93.98279       31.55108       43.80436
O         92.86163       32.03729       43.86095
H         94.22001       32.89683       46.07606
H         96.08030       31.90501       43.89272
H         95.09028       33.36994       43.73226
N         94.16750       30.27039       43.38175
C         93.09054       29.41577       42.90607
C         92.63391       28.38550       43.99041
O         93.60881       27.53231       44.54099
C         93.36827       28.85558       41.46669
C         94.76765       29.03054       40.87468
O         95.84786       28.43262       41.40982
O         94.91532       29.70941       39.87159
H         95.11681       29.88033       43.42097
H         92.16400       30.02413       42.80217
H         92.69118       29.41171       40.78002
H         93.05073       27.79390       41.40209
N         91.43633       27.64137       43.56691
C         90.92829       26.65385       44.53736
C         90.46371       27.25329       45.85123
O         89.27875       27.18858       46.14770
H         90.66787       28.32110       43.35891
H         91.69005       25.87157       44.73445
H         90.06557       26.13931       44.06008
N         91.36155       27.80245       46.71326
C         91.03828       28.32780       48.02811
C         91.79166       27.53727       49.07982
O         92.56509       26.64835       48.74303
C         91.38346       29.84217       48.10421
C         92.85948       30.15585       47.81487
O         90.58842       30.55414       47.19293
H         92.35186       27.80688       46.46063
H         89.95288       28.21212       48.24394
H         91.18127       30.21875       49.13389
H         89.70653       30.69224       47.62914
H         93.03971       31.24447       47.93805
H         93.52609       29.61190       48.51677
H         93.13267       29.88927       46.77274
N         91.61130       27.81814       50.39518
C         92.31965       27.11228       51.45350
C         91.89205       25.65276       51.41472
O         92.73819       24.77826       51.31070
C         92.05419       27.77346       52.84664
C         92.47070       29.27703       52.82359
C         92.83213       27.01843       53.94451
C         92.18602       30.03021       54.12399
H         90.93244       28.55190       50.64136
H         93.41674       27.18709       51.27127
H         90.96767       27.71108       53.07765
H         91.90584       29.82055       52.04137
H         93.55101       29.37049       52.57964
H         92.53917       25.94916       53.97757
H         93.92612       27.08305       53.75790
H         92.61568       27.43171       54.94951
H         92.80154       29.64597       54.96087
H         92.44355       31.10240       53.98721
H         91.10888       29.95736       54.38471
N         90.56749       25.34237       51.48714
C         90.03528       23.97700       51.47446
C         88.64377       23.94588       52.10431
O         88.11605       24.98881       52.46288
C         90.04494       23.35875       50.04448
C         89.22421       24.16632       49.03229
O         91.36472       23.24771       49.57542
H         89.91644       26.13357       51.58691
H         90.66038       23.35062       52.14805
H         89.59208       22.34098       50.11125
H         91.45495       22.36196       49.13418
H         89.24230       23.65455       48.04532
H         88.16640       24.24944       49.35832
H         89.64940       25.18424       48.90452
N         88.01040       22.75676       52.32293
C         86.73966       22.66740       53.03067
C         86.94986       21.86946       54.30568
O         86.81191       22.44699       55.37629
C         85.63284       22.12451       52.09571
C         84.27671       22.04611       52.80425
O         85.97767       20.86397       51.58406
H         88.46218       21.88147       52.02152
H         86.40081       23.68137       53.34120
H         85.54834       22.85328       51.25383
H         85.49334       20.75757       50.72378
H         83.98715       23.04552       53.19349
H         83.49793       21.70962       52.08791
H         84.31552       21.32512       53.64815
N         87.28721       20.54783       54.27700
C         87.53267       19.76140       55.47752
C         88.86282       19.04611       55.35815
O         89.06531       18.32076       54.39250
C         86.39444       18.74685       55.69228
C         86.57232       18.01348       57.03542
C         85.41306       17.06209       57.33645
C         85.62029       16.38811       58.70144
N         84.51367       15.48787       59.01864
H         87.35697       20.06482       53.37037
H         87.53627       20.41655       56.37688
H         86.35056       18.02023       54.85122
H         85.43285       19.30547       55.72346
H         86.62729       18.76957       57.85042
H         87.52123       17.43405       57.02651
H         85.35279       16.28687       56.54193
H         84.46113       17.63659       57.35342
H         85.69339       17.16694       59.49391
H         86.57215       15.81118       58.69144
H         83.61742       16.02493       59.06600
H         84.44092       14.73833       58.29318
H         84.69137       15.04429       59.94883
N         89.79237       19.14793       56.34705
C         91.04168       18.40115       56.32392
C         91.93634       18.85552       55.17126
O         92.26335       18.00949       54.35129
C         91.71638       18.43525       57.71292
C         92.97202       17.55161       57.78098
C         93.55258       17.48719       59.16960
O         92.98528       18.15149       60.19694
O         94.54899       16.81286       59.37285
H         89.57048       19.72196       57.17548
H         90.78901       17.32628       56.16526
H         90.97666       18.03850       58.44441
H         91.96505       19.46299       58.02833
H         93.74442       17.94961       57.08868
H         92.71030       16.51697       57.46888
N         92.36596       20.13844       54.97913
C         92.03882       21.26737       55.82294
H         90.94116       21.41468       55.87171
H         92.46737       21.14425       56.83252
H         92.48565       22.19057       55.39647
H         92.95135       20.33257       54.15129
Ca        95.39261       27.35365       43.25265
O         98.35340       26.76847       42.94544
H         98.50282       25.81502       42.72424
H         98.76070       26.88420       43.84049
O         94.19997       24.70014       45.11045
H         93.97514       23.92032       44.54390
H         93.59357       24.62715       45.88980
O         97.19958       24.60126       45.20655
H         97.70427       24.12638       44.49949
H         97.18413       23.96810       45.96765
O         95.20409       24.86395       41.89313
H         95.96527       25.36594       41.50624
H         95.50219       23.92088       41.89055
O         95.25095       26.59686       47.34030
H         95.67111       26.87001       48.19405
H         94.69970       27.37593       47.07825

Ca 1.0



