%chk=apoCaM-CA-Ng.loop3.water4.frame1031.chk
%nprocshared=20
%mem=10GB
%nosave
#b3lyp/svp scf=(tight,noincore,xqc) Test 
#IOP(5/87=12) Density=Current Pop=(MK,readradii) iop(6/33=2) iop(6/42=6)

apoCaM-CA-Ng.loop3.water4.frame1031 

   0  1 
C         31.60062       35.74750       39.80749
C         32.15441       35.50410       38.43386
O         31.71023       36.15044       37.49570
H         30.51069       35.53358       39.80881
H         32.08516       35.09334       40.56294
H         31.76626       36.80592       40.09594
N         33.12502       34.56817       38.23585
C         33.66716       34.24897       36.91730
C         32.54749       33.75643       36.02159
O         32.37615       34.28810       34.93722
C         34.77919       33.18531       37.01451
C         35.89797       33.62979       37.91869
O         36.21444       32.89889       39.00499
O         36.51996       34.65251       37.67804
H         33.47424       34.04735       39.05521
H         34.12521       35.16318       36.47347
H         35.19864       33.00280       36.00016
H         34.36093       32.22991       37.39780
N         31.68627       32.79941       36.46893
C         30.49638       32.37973       35.73367
C         30.87209       31.51785       34.54717
O         31.72410       30.65013       34.68167
C         29.51124       31.61849       36.64147
C         29.04500       32.48278       37.82996
C         27.97782       31.76111       38.65755
C         27.62123       32.56798       39.91392
N         26.58684       31.89050       40.69431
H         31.84224       32.42014       37.41453
H         29.93698       33.28108       35.39195
H         29.97705       30.68231       37.01836
H         28.61958       31.35056       36.03065
H         28.62157       33.44423       37.46146
H         29.91143       32.71176       38.48469
H         28.36245       30.76702       38.97216
H         27.06972       31.61354       38.03184
H         27.26148       33.58162       39.62862
H         28.53391       32.68447       40.54100
H         25.70224       31.83241       40.13941
H         26.90311       30.92863       40.95685
H         26.40448       32.43596       41.56751
N         30.23843       31.68201       33.35197
C         30.60121       30.92354       32.15052
C         32.00635       31.25578       31.67036
O         32.54194       30.51801       30.85447
C         29.60159       31.16536       30.99318
C         29.23114       32.61565       30.83477
O         30.15929       33.58783       30.76595
O         28.05355       32.93394       30.89833
H         29.47238       32.37031       33.31350
H         30.58190       29.83892       32.39625
H         28.66168       30.61229       31.21070
H         30.00873       30.75984       30.04182
N         32.63481       32.38654       32.07907
C         33.94340       32.79898       31.62056
C         35.08009       32.02257       32.26647
O         34.86676       30.88655       32.66449
H         32.13323       33.04539       32.69050
H         34.01141       33.83422       31.95401
H         34.01803       32.81233       30.51191
N         36.31921       32.57059       32.47724
C         36.69688       33.93557       32.12273
C         36.93180       34.73423       33.40514
O         37.83885       34.38419       34.14651
C         37.94985       33.94647       31.21834
C         38.32180       35.33001       30.70800
N         39.37562       35.48523       29.87618
O         37.67346       36.31442       31.02980
H         37.02408       31.99730       32.96806
H         35.92176       34.39454       31.50127
H         37.74634       33.30766       30.33197
H         38.81534       33.51603       31.76703
H         39.93880       34.67539       29.58184
H         39.62418       36.42154       29.52140
N         36.19453       35.83443       33.74474
C         35.05603       36.29645       32.96734
C         34.54480       37.65025       33.34908
O         35.06701       38.29119       34.25211
H         36.46589       36.34849       34.59721
H         34.22517       35.57856       33.07911
H         35.34164       36.40937       31.90387
N         33.50596       38.16493       32.63523
C         33.01853       39.52342       32.82305
C         31.65212       39.72666       32.15496
O         31.12310       38.79314       31.56414
C         34.11580       40.49498       32.29392
C         33.88123       41.92637       32.68055
C         33.73124       42.92217       31.70237
C         33.78977       42.27245       34.03919
C         33.47287       44.24274       32.08185
C         33.52581       43.58846       34.41428
C         33.36194       44.57872       33.43642
O         33.09533       45.85186       33.78770
H         33.08483       37.56360       31.91065
H         32.84731       39.67059       33.91052
H         34.19801       40.37499       31.19026
H         35.10345       40.22864       32.72214
H         33.80145       42.67590       30.64988
H         33.90693       41.51981       34.80882
H         33.35006       45.00344       31.32186
H         33.44314       43.83326       35.46534
H         32.99697       46.11657       34.71357
N         31.00185       40.92301       32.23606
C         29.67021       41.15716       31.69254
C         29.72793       42.05355       30.47592
O         30.76633       42.63321       30.18563
C         28.73108       41.78048       32.77695
C         28.55901       40.87965       34.02093
C         29.22542       43.17430       33.23487
C         27.87742       39.54796       33.71236
H         31.45810       41.70788       32.70352
H         29.24174       40.20300       31.32883
H         27.72543       41.93279       32.32639
H         27.91407       41.41165       34.75497
H         29.54321       40.69274       34.50375
H         28.49767       43.62736       33.93971
H         30.20076       43.12249       33.76097
H         29.32536       43.86730       32.37323
H         26.88325       39.72760       33.24975
H         28.49412       38.92398       33.03583
H         27.73056       38.98547       34.65822
N         28.61837       42.18252       29.69821
C         28.53935       43.06010       28.54102
C         28.45985       42.26563       27.25643
O         28.38544       41.04508       27.29441
C         27.29415       43.95614       28.68403
O         26.13639       43.16209       28.70011
H         27.78897       41.61829       29.93577
H         29.44636       43.69903       28.47765
H         27.24043       44.66965       27.83297
H         27.36323       44.52934       29.63387
H         25.36319       43.78317       28.69205
N         28.45827       42.92778       26.06442
C         28.26628       42.29950       24.76770
C         26.88216       41.67953       24.71131
O         26.74776       40.49623       24.43131
C         29.40916       41.32424       24.43540
H         28.55608       43.95444       26.07186
H         28.29296       43.09824       23.99329
H         29.44973       40.47055       25.14161
H         29.27685       40.91940       23.40944
H         30.38186       41.86032       24.47258
N         25.79301       42.46179       24.98965
C         24.40057       42.01940       24.93653
C         24.04751       40.93329       25.95141
O         22.92738       40.44342       25.90664
C         24.04347       41.59502       23.50626
H         25.95646       43.45097       25.23331
H         23.75046       42.89055       25.17460
H         24.26316       42.43067       22.80742
H         24.61195       40.69943       23.18579
H         22.95923       41.36588       23.43501
N         24.92398       40.52509       26.91256
C         24.63426       39.46405       27.87202
C         23.42601       39.80131       28.72254
O         22.45310       39.06112       28.67430
C         25.88807       39.21280       28.72893
C         25.74770       38.07226       29.74296
C         27.07986       37.71973       30.34915
O         28.10288       38.30075       30.02000
O         27.17114       36.65400       31.15436
H         25.84469       40.97637       26.96535
H         24.42542       38.52846       27.30389
H         26.18134       40.13539       29.26982
H         26.70167       38.94630       28.01705
H         25.38427       37.16581       29.21224
H         25.01834       38.33736       30.53833
N         23.41761       40.90239       29.52320
C         22.28809       41.27524       30.35105
H         21.43627       40.56922       30.25247
H         22.60248       41.29564       31.41510
H         21.93709       42.28620       30.05744
H         24.24787       41.51027       29.55216
Ca        29.13126       35.56858       31.01215
O         28.18830       35.55091       33.99326
H         27.99516       34.58499       33.89247
H         28.52412       35.64308       34.92005
O         31.90610       36.24278       29.78534
H         32.50031       35.45182       29.74620
H         32.46519       36.99202       29.45904
O         28.91451       36.10027       28.07241
H         29.77316       36.33146       27.63765
H         28.95812       35.11997       28.20548
O         31.15352       36.34065       33.18652
H         30.82164       35.41963       33.32773
H         31.36610       36.67920       34.09252

Ca 1.0



