%chk=apoCaM-CA-Ng.loop4.water4.frame811.chk
%nprocshared=20
%mem=10GB
%nosave
#b3lyp/svp scf=(tight,noincore,xqc) Test 
#IOP(5/87=12) Density=Current Pop=(MK,readradii) iop(6/33=2) iop(6/42=6)

apoCaM-CA-Ng.loop4.water4.frame811 

   -3  1 
C         75.07058      101.09365       78.54539
C         74.04326      101.95714       79.21808
O         73.23569      101.42814       79.96763
H         75.71236      100.61184       79.31075
H         74.56561      100.30254       77.95305
H         75.72103      101.68640       77.87002
N         74.02475      103.30716       79.01260
C         73.07083      104.21261       79.64498
C         73.17922      104.10768       81.15507
O         72.21828      103.70816       81.80064
C         71.62725      103.95545       79.14803
C         71.49895      104.12096       77.66131
O         71.03837      103.10433       76.91083
O         71.78298      105.18254       77.12986
H         74.73555      103.72436       78.39277
H         73.32292      105.25961       79.36251
H         70.94636      104.68951       79.63244
H         71.28741      102.93733       79.43289
N         74.33475      104.46619       81.78772
C         74.50677      104.35806       83.23673
C         74.54716      105.74665       83.87518
O         74.93912      106.68056       83.18865
C         75.76927      103.50750       83.60162
C         77.09389      104.16565       83.11181
C         75.61772      102.07604       83.05350
C         78.36109      103.44368       83.58150
H         75.10299      104.85227       81.21892
H         73.62070      103.83965       83.63921
H         75.81374      103.43715       84.70936
H         77.15609      105.19908       83.51252
H         77.11983      104.22038       82.00313
H         75.59889      102.07555       81.94276
H         76.44740      101.42354       83.39308
H         74.67721      101.62184       83.42901
H         79.25494      104.00567       83.23439
H         78.38866      103.39177       84.69036
H         78.43132      102.42080       83.16026
N         74.18235      106.00594       85.17345
C         73.64589      105.04236       86.13429
C         72.31677      105.53929       86.69753
O         72.30998      106.55955       87.37393
C         74.65871      104.85376       87.28126
C         74.24380      103.82556       88.30681
O         75.04770      103.58764       89.35916
O         73.19886      103.20116       88.20054
H         74.29712      106.97628       85.50803
H         73.49824      104.05182       85.67495
H         74.81733      105.82775       87.79447
H         75.63114      104.53264       86.85283
N         71.15317      104.86173       86.46494
C         69.87297      105.25158       87.05422
C         69.04367      104.08889       87.59160
O         67.95776      104.35437       88.08748
H         71.17387      104.08032       85.79431
H         69.26179      105.73930       86.26791
H         70.02276      105.98639       87.87627
N         69.44676      102.78771       87.49261
C         68.63936      101.64251       87.91072
C         69.37340      100.83316       88.96295
O         68.79803      100.57750       90.01251
C         68.21674      100.77728       86.69632
C         69.33715      100.20365       85.86850
O         70.10918      100.93801       85.27413
O         69.45250       98.86988       85.72373
H         70.35978      102.58362       87.07593
H         67.67637      101.97840       88.36018
H         67.58108      101.39494       86.02507
H         67.58489       99.94044       87.07140
N         70.66317      100.42835       88.77435
C         71.40140       99.68121       89.77550
C         71.04703       98.21058       89.79751
O         71.58104       97.51177       90.64540
H         71.16894      100.70762       87.92292
H         71.25077      100.15104       90.77268
H         72.48648       99.73755       89.54300
N         70.20758       97.65285       88.87237
C         69.87739       96.23309       88.80908
C         71.09080       95.35919       88.50803
O         71.01098       94.15819       88.72677
C         69.09354       95.78348       90.07174
C         67.80706       96.60878       90.29743
C         66.74843       96.44848       89.22442
N         65.61271       97.17936       89.28961
O         66.89787       95.66104       88.30170
H         69.78086       98.24811       88.15276
H         69.21273       96.07506       87.93812
H         69.73862       95.88904       90.96865
H         68.81531       94.70976       89.99208
H         68.08027       97.68235       90.37969
H         67.35127       96.30189       91.26311
H         65.46191       97.84978       90.05710
H         64.88574       97.08075       88.56508
N         72.21384       95.87522       87.91918
C         73.37265       95.06057       87.54903
C         73.68649       95.10949       86.05324
O         74.57599       94.37402       85.64452
C         74.63055       95.50474       88.35344
C         75.04419       96.96015       88.05562
C         74.41851       95.32006       89.86057
H         72.25018       96.88334       87.71915
H         73.17638       93.99236       87.78886
H         75.47976       94.84724       88.06093
H         75.97386       97.21312       88.60725
H         75.24910       97.09866       86.97349
H         74.25814       97.68007       88.36435
H         73.59472       95.96398       90.22718
H         74.17365       94.26083       90.08599
H         75.34488       95.58796       90.41214
N         73.07983       95.98367       85.19311
C         73.51526       96.15792       83.80814
C         72.34982       96.08037       82.83253
O         71.20208       96.17339       83.24926
C         74.20962       97.53273       83.73150
C         74.71741       97.89476       82.36422
N         74.23711       98.98683       81.72796
O         75.56982       97.20310       81.82742
H         72.36034       96.63117       85.54328
H         74.24606       95.36744       83.52783
H         75.07126       97.54044       84.43397
H         73.48849       98.30629       84.07647
H         73.52042       99.58460       82.16615
H         74.57971       99.23285       80.79104
N         72.58462       95.88420       81.49859
C         71.50704       95.83790       80.51064
C         71.97844       95.23891       79.18203
O         73.17518       95.06586       78.98983
C         70.99937       97.28377       80.26691
C         69.60885       97.34487       79.69709
C         69.36654       97.76020       78.37730
C         68.52524       97.01369       80.52525
C         68.05410       97.82805       77.89375
C         67.21753       97.09859       80.04750
C         66.97506       97.50122       78.73131
O         65.70429       97.57268       78.28698
H         73.55701       95.71486       81.20565
H         70.71977       95.16990       80.92551
H         71.73738       97.80854       79.61726
H         70.96361       97.86441       81.21371
H         70.18790       98.02055       77.72267
H         68.69593       96.71030       81.55117
H         67.87579       98.13937       76.87217
H         66.39259       96.85469       80.70496
H         65.48769       97.84494       77.38436
N         71.08205       94.88284       78.21575
C         71.48657       94.36925       76.90978
C         70.84976       95.22175       75.82920
O         69.65005       95.09357       75.62339
C         71.05546       92.89819       76.74446
C         71.77430       91.97795       77.73858
C         71.31402       90.55831       77.57714
O         70.02268       90.23913       77.79000
O         72.10765       89.68528       77.26465
H         70.07333       94.97148       78.41174
H         72.58841       94.39609       76.79922
H         71.30088       92.55830       75.71301
H         69.95434       92.81795       76.88842
H         71.56586       92.29654       78.78159
H         72.87097       92.04125       77.56058
N         71.52980       96.16615       75.11947
C         72.90497       96.58302       75.37885
C         73.91692       95.64463       74.75996
O         73.78844       95.29556       73.59431
C         73.13737       98.01866       74.86602
C         72.24817       99.00713       75.64040
C         72.53498      100.42890       75.27238
O         72.94207      101.20433       76.12076
O         72.31755      100.87530       74.02307
H         70.97915       96.71850       74.44226
H         73.07970       96.64773       76.47592
H         72.94827       98.08617       73.77143
H         74.20020       98.29042       75.05683
H         72.43939       98.88000       76.72969
H         71.17357       98.80214       75.45209
N         75.00799       95.26131       75.48022
C         76.04916       94.42093       74.93150
H         76.86581       94.30045       75.67604
H         75.63878       93.42058       74.68391
H         76.47732       94.88861       74.01863
H         75.12828       95.61127       76.44305
Ca        72.65623      103.07744       73.64816
O         69.09854      104.58289       74.86964
H         68.90153      105.53002       74.65887
H         68.20862      104.16035       74.96849
O         69.37038      101.31708       75.09902
H         68.43089      101.34206       74.78841
H         69.31585      100.99475       76.03379
O         69.90423      102.85792       72.16853
H         69.37801      103.59455       71.76777
H         70.70504      102.78309       71.59091
O         71.61191      105.92689       73.41069
H         71.56212      106.10452       72.43790
H         71.24547      106.74364       73.83336

Ca 1.0



