%chk=apoCaM-CA-Ng.loop2.water3.frame886.chk
%nprocshared=20
%mem=10GB
%nosave
#b3lyp/svp scf=(tight,noincore,xqc) Test 
#IOP(5/87=12) Density=Current Pop=(MK,readradii) iop(6/33=2) iop(6/42=6)

apoCaM-CA-Ng.loop2.water3.frame886 

   -2  1 
C          3.53891        0.40618       10.74304
C          2.79197        1.65993       10.39992
O          1.59735        1.59528       10.14736
H          3.98188        0.50273       11.75694
H          2.86032       -0.47326       10.73306
H          4.35095        0.24274       10.00436
N          3.44571        2.85380       10.39221
C          2.80371        4.12596       10.09683
C          2.82287        4.95736       11.36555
O          3.47215        5.99254       11.43171
C          3.51245        4.78247        8.89380
C          2.82829        6.04888        8.45572
O          1.66403        6.02348        8.08803
O          3.50257        7.21417        8.44769
H          4.44959        2.86659       10.63369
H          1.73822        3.97942        9.81110
H          3.49432        4.07549        8.03553
H          4.57512        4.99049        9.14639
N          2.09743        4.52480       12.43403
C          2.06746        5.20291       13.72267
C          3.42333        5.06929       14.39940
O          3.86656        3.93828       14.54850
C          0.99360        4.56011       14.61217
H          1.52801        3.67198       12.31294
H          1.77072        6.25601       13.55654
H          0.93720        5.07336       15.59245
H          0.00081        4.64387       14.12033
H          1.21139        3.48383       14.78512
N          4.18133        6.12111       14.83155
C          3.79512        7.53529       14.79935
C          4.97634        8.45852       15.10638
O          6.04672        8.00925       15.49091
C          2.63739        7.82692       15.79729
C          2.90358        7.17859       17.13070
O          2.14036        6.32009       17.54230
O          4.03996        7.42087       17.80899
H          5.10528        5.87547       15.21914
H          3.49743        7.79869       13.76143
H          1.68613        7.41283       15.41136
H          2.47504        8.91931       15.91258
N          4.84083        9.79291       14.87221
C          5.90721       10.76656       15.02627
C          5.39920       11.96679       15.78673
O          5.19344       12.99313       15.15437
H          3.94814       10.13364       14.48191
H          6.16939       11.10628       14.00006
H          6.83179       10.34845       15.47470
N          5.12395       11.95967       17.12097
C          5.42505       10.87160       18.04544
C          6.93692       10.77758       18.22308
O          7.55489       11.80354       18.47554
C          4.76193       11.18212       19.40936
C          4.80759       10.05109       20.40805
N          4.29710       10.23550       21.64556
O          5.27633        8.96443       20.10749
H          4.69780       12.81714       17.50946
H          4.97695        9.92705       17.67047
H          3.68539       11.40510       19.24287
H          5.23746       12.08531       19.85137
H          3.89127       11.14231       21.91802
H          4.30895        9.47178       22.33381
N          7.59726        9.58801       18.13764
C          9.04852        9.47217       18.24819
C          9.51281        8.78733       19.52064
O         10.70927        8.56941       19.64731
H          7.05362        8.72449       17.99482
H          9.54065       10.46832       18.22652
H          9.41290        8.90612       17.36471
N          8.64912        8.46248       20.52370
C          9.04923        7.84049       21.78427
C          8.31914        6.52064       21.97080
O          7.50145        6.15401       21.13705
C          8.73115        8.80289       22.96268
C          9.59548       10.06452       22.91969
O          7.37232        9.16036       22.93287
H          7.65423        8.68545       20.41262
H         10.13855        7.61569       21.79630
H          8.96596        8.29067       23.92346
H          7.10770        9.38871       23.86205
H         10.66974        9.78879       22.98700
H          9.42113       10.63859       21.98656
H          9.35061       10.71280       23.78879
N          8.55458        5.76734       23.08263
C          7.82114        4.55185       23.40677
C          6.97985        4.87961       24.62066
O          7.53821        5.25732       25.64289
C          8.79306        3.36424       23.66032
C          7.99014        2.07862       23.99720
C          9.69528        3.15153       22.42858
C          8.86010        0.87757       24.37058
H          9.24812        6.09845       23.77084
H          7.14685        4.26835       22.56951
H          9.44540        3.61864       24.52590
H          7.35011        1.80078       23.13465
H          7.32954        2.27531       24.86860
H         10.44083        2.35168       22.60731
H          9.08586        2.88941       21.53741
H         10.27524        4.07142       22.20447
H          9.49538        1.12122       25.24816
H          8.20442        0.02042       24.63374
H          9.50081        0.55735       23.52505
N          5.61960        4.81343       24.55697
C          4.75243        5.28571       25.62902
C          3.94636        4.16602       26.26010
O          3.24803        4.44578       27.22492
C          3.80346        6.37447       25.08430
C          4.54646        7.52434       24.46381
O          4.41907        8.76477       24.97184
O          5.24504        7.34509       23.47896
H          5.17568        4.46934       23.69271
H          5.36090        5.73244       26.44662
H          3.17583        6.76244       25.91584
H          3.12956        5.93793       24.31432
N          3.97662        2.88267       25.79071
C          3.23490        1.80535       26.43500
C          3.31329        0.52264       25.60293
O          4.42444        0.07931       25.34302
C          3.82922        1.50071       27.83448
C          3.09419        0.34916       28.47993
C          3.71506       -0.90661       28.58948
C          1.77320        0.50481       28.93178
C          3.01842       -1.99282       29.12382
C          1.08218       -0.58312       29.47415
C          1.70265       -1.83217       29.56481
H          4.52510        2.66194       24.94792
H          2.18732        2.13946       26.54356
H          3.80314        2.37770       28.51433
H          4.90019        1.23489       27.69132
H          4.72826       -1.05180       28.23572
H          1.27706        1.46456       28.85447
H          3.49711       -2.96121       29.18678
H          0.06239       -0.46064       29.81491
H          1.16346       -2.67663       29.97325
N          2.20030       -0.18048       25.20576
C          2.26973       -1.50146       24.58383
C          2.89362       -1.55584       23.20051
O          2.95849       -2.64113       22.63889
C          0.80126       -1.93616       24.48763
C          0.18746       -1.23549       25.67783
C          0.83096        0.13798       25.56603
H          2.82178       -2.16643       25.28592
H          0.33553       -1.47727       23.58357
H          0.64909       -3.03547       24.44464
H         -0.92262       -1.22073       25.69328
H          0.55948       -1.72853       26.60548
H          0.37153        0.71867       24.73490
H          0.69227        0.66210       26.52649
N          3.31869       -0.43088       22.56067
C          3.77984       -0.42677       21.17657
C          5.05262       -1.22582       20.92087
O          5.41484       -1.35357       19.75919
C          3.90679        1.02775       20.68752
C          5.03678        1.83840       21.35269
C          4.84896        3.27868       20.98343
O          3.88874        3.89332       21.41969
O          5.64050        3.86281       20.07115
H          3.21216        0.47520       23.03456
H          2.97081       -0.89200       20.56922
H          2.92593        1.51164       20.89271
H          4.06238        1.04907       19.58561
H          6.01162        1.45397       20.98067
H          5.02719        1.76212       22.46027
N          5.77349       -1.80316       21.92647
C          6.95196       -2.61548       21.69266
H          7.82296       -2.16296       22.20938
H          6.77914       -3.63399       22.10075
H          7.19543       -2.71669       20.61378
H          5.48871       -1.67988       22.90714
Ca         4.72034        5.63761       19.01391
O          2.35573        6.98602       21.15004
H          1.48119        6.59056       21.39401
H          2.16052        7.55213       20.36136
O          7.52140        5.91386       18.03758
H          6.89726        6.29010       17.36796
H          7.28428        4.95359       18.08027
O          2.04465        3.55741       19.34375
H          2.42387        3.36997       18.44881
H          1.45971        4.34459       19.21405

Ca 1.0



