%chk=apoCaM-CA-Ng.loop3.water4.frame139.chk
%nprocshared=20
%mem=10GB
%nosave
#b3lyp/svp scf=(tight,noincore,xqc) Test 
#IOP(5/87=12) Density=Current Pop=(MK,readradii) iop(6/33=2) iop(6/42=6)

apoCaM-CA-Ng.loop3.water4.frame139 

   0  1 
C         48.17094       27.19490        2.37075
C         48.47349       25.73172        2.50341
O         48.46474       25.23300        3.61865
H         47.15191       27.39813        2.76324
H         48.90899       27.78136        2.95679
H         48.21358       27.52491        1.31164
N         48.75905       24.97455        1.40254
C         49.02156       23.53731        1.44401
C         50.28878       23.19821        2.24357
O         50.53128       22.02615        2.49131
C         47.75364       22.80035        1.95415
C         47.72464       21.31196        1.70002
O         48.62723       20.74449        1.10478
O         46.65314       20.60125        2.09936
H         48.76793       25.43064        0.47730
H         49.18405       23.19550        0.39709
H         46.87030       23.21301        1.41837
H         47.62042       22.98114        3.03943
N         51.18350       24.16355        2.61801
C         52.41618       23.88796        3.34847
C         52.47756       24.77349        4.57895
O         53.35642       25.62048        4.67937
C         53.62913       24.13593        2.43259
C         53.65548       23.18058        1.23520
C         54.92616       23.40415        0.41160
C         54.99997       22.43241       -0.76966
N         56.23255       22.63682       -1.52896
H         51.02822       25.14151        2.33546
H         52.46869       22.82903        3.68638
H         54.55310       23.96570        3.02974
H         53.62625       25.18900        2.07220
H         52.76055       23.34616        0.59630
H         53.64253       22.13186        1.60639
H         55.81355       23.24511        1.06344
H         54.94332       24.45005        0.03345
H         54.12307       22.58856       -1.43656
H         54.97360       21.38611       -0.39095
H         57.06319       22.47165       -0.91458
H         56.26105       21.96008       -2.32497
H         56.26370       23.61112       -1.90812
N         51.55520       24.62794        5.56592
C         51.51015       25.48210        6.74375
C         51.74682       24.63820        7.98936
O         51.05914       23.64413        8.17068
C         50.15019       26.21378        6.74747
C         50.01786       27.25001        7.82696
O         50.91743       27.44732        8.62776
O         48.89236       27.97813        7.92402
H         50.83711       23.89212        5.46866
H         52.29399       26.26931        6.69297
H         49.32431       25.47549        6.84919
H         50.02950       26.73930        5.77535
N         52.73433       24.95955        8.88045
C         53.02534       24.16290       10.06842
C         51.93012       24.17514       11.12726
O         52.04213       23.41107       12.07471
H         53.33292       25.77798        8.69278
H         53.95468       24.53682       10.55089
H         53.21161       23.11666        9.74368
N         50.86248       25.01872       11.05339
C         49.74323       25.03445       11.99308
C         48.42137       24.69768       11.27917
O         47.41021       24.60538       11.95723
C         49.69556       26.36892       12.78829
C         49.95884       27.60009       11.91375
N         51.34589       28.06104       11.94872
O         49.09657       28.66059       12.16037
H         50.82165       25.69078       10.28089
H         49.85653       24.23389       12.75713
H         50.46981       26.35949       13.58648
H         48.71614       26.44237       13.31007
H         52.00041       27.26733       11.77138
H         51.55210       28.46673       12.89045
N         48.37188       24.38144        9.94885
C         47.22854       23.76007        9.29261
C         46.13065       24.68468        8.81127
O         45.19934       24.16844        8.21173
H         49.23246       24.39946        9.40192
H         46.81450       22.95973        9.94411
H         47.60594       23.25687        8.37462
N         46.14234       26.03056        9.01489
C         45.08520       26.91851        8.51892
C         45.16141       28.23723        9.23723
O         46.13609       28.95239        9.08573
C         45.20793       27.18584        7.00128
C         44.62906       26.09465        6.14872
C         43.24686       25.84717        6.19803
C         45.43291       25.34658        5.27843
C         42.67548       24.86710        5.38707
C         44.85915       24.36006        4.46936
C         43.47693       24.12017        4.51951
O         42.90817       23.18104        3.73796
H         46.90329       26.43218        9.58330
H         44.09389       26.48243        8.76952
H         46.27503       27.39307        6.76076
H         44.63054       28.09837        6.73051
H         42.60946       26.42632        6.85554
H         46.49729       25.52817        5.22988
H         41.60744       24.69501        5.42992
H         45.48527       23.78695        3.80066
H         43.42391       22.64680        3.11791
N         44.16321       28.60003       10.08288
C         44.28407       29.72737       10.98550
C         44.85983       29.16727       12.26736
O         45.91152       29.62451       12.69398
C         42.93316       30.46926       11.13677
C         42.32544       30.85730        9.75810
C         43.09519       31.71066       12.03241
C         43.22570       31.71671        8.86049
H         43.37548       27.94970       10.22623
H         45.01002       30.46708       10.58956
H         42.20107       29.79135       11.62910
H         41.36845       31.39747        9.92547
H         42.08200       29.93027        9.19530
H         43.83051       32.42373       11.60473
H         42.12029       32.22939       12.14958
H         43.45023       31.42203       13.04202
H         43.48294       32.67951        9.34499
H         44.15777       31.17591        8.59552
H         42.69227       31.93821        7.91224
N         44.29618       28.07121       12.85697
C         44.96845       27.34629       13.92641
C         45.01852       28.12546       15.22295
O         45.70259       27.67667       16.13185
C         44.31465       25.96868       14.15277
O         44.21552       25.23788       12.95658
H         43.43553       27.67274       12.45355
H         46.01565       27.15927       13.59196
H         43.28807       26.11323       14.54842
H         44.89561       25.37941       14.89694
H         45.09936       25.26808       12.51007
N         44.35045       29.30911       15.37969
C         44.45872       30.14388       16.56406
C         45.91074       30.52901       16.75177
O         46.49445       30.23680       17.78790
C         43.83840       29.44986       17.78707
H         43.76465       29.67368       14.61767
H         43.87529       31.07690       16.39563
H         44.36614       28.50968       18.04576
H         43.87894       30.12746       18.66609
H         42.77326       29.21144       17.57990
N         46.56398       31.18401       15.74897
C         47.97936       31.53026       15.83125
C         48.41845       32.47539       14.72413
O         47.65827       32.75817       13.80829
C         48.83787       30.25460       15.77676
H         46.01643       31.44968       14.91573
H         48.14174       32.07245       16.78875
H         49.91750       30.49520       15.86369
H         48.58266       29.55720       16.59929
H         48.66951       29.72796       14.81157
N         49.64854       33.06074       14.80422
C         50.17246       34.03870       13.85691
C         49.18311       35.18296       13.69290
O         48.78977       35.49516       12.57641
C         50.54274       33.38113       12.50739
C         51.53860       32.22294       12.67403
C         51.89088       31.61857       11.34514
O         53.16775       31.62473       10.91720
O         51.02560       31.10609       10.65331
H         50.23577       32.84953       15.62595
H         51.11218       34.45470       14.28421
H         50.99933       34.15243       11.84727
H         49.62799       33.00892       12.01248
H         51.09887       31.42734       13.31336
H         52.46295       32.60056       13.16245
N         48.70077       35.82132       14.79524
C         47.70319       36.87082       14.73629
H         46.79458       36.53998       15.28294
H         48.10127       37.78667       15.21815
H         47.40711       37.11891       13.69514
H         49.02806       35.52876       15.72823
Ca        48.58779       28.79490        9.98578
O         49.01189       32.62465        8.80346
H         48.74600       32.95609        7.90951
H         49.74637       33.22593        9.08497
O         47.12289       30.74612        7.05042
H         46.16906       30.69398        6.78988
H         47.55504       30.00315        6.55922
O         51.31178       30.70141        7.54334
H         52.15313       30.76751        8.06129
H         51.20874       31.59272        7.12451
O         47.76016       31.59108       11.21422
H         48.28381       31.06511       11.86884
H         47.22134       30.91937       10.73361

Ca 1.0



