%chk=apoCaM-CA-Ng.loop4.water3.frame347.chk
%nprocshared=20
%mem=10GB
%nosave
#b3lyp/svp scf=(tight,noincore,xqc) Test 
#IOP(5/87=12) Density=Current Pop=(MK,readradii) iop(6/33=2) iop(6/42=6)

apoCaM-CA-Ng.loop4.water3.frame347 

   -3  1 
C         83.26961       76.01739       18.77658
C         84.17077       75.87662       17.58784
O         85.34686       76.14131       17.73449
H         82.22718       75.72621       18.53705
H         83.64266       75.35555       19.58917
H         83.28460       77.06707       19.13623
N         83.69785       75.43384       16.38796
C         84.52736       75.15122       15.21775
C         85.48608       74.01605       15.50295
O         86.68560       74.19821       15.44154
C         85.10880       76.40789       14.50990
C         85.98370       77.42448       15.21500
O         87.24620       77.17225       15.62506
O         85.59381       78.58089       15.25849
H         82.69270       75.21587       16.31212
H         83.85891       74.73208       14.43059
H         84.21876       76.96749       14.14320
H         85.65900       76.06777       13.60508
N         84.95808       72.78483       15.77663
C         85.65277       71.52155       16.03724
C         86.43998       71.02797       14.82527
O         86.01449       70.04845       14.22704
C         86.46886       71.51766       17.35989
C         86.91457       70.05714       17.66404
C         85.61262       72.08400       18.51089
C         87.70074       69.89279       18.95996
H         83.92738       72.72280       15.79218
H         84.83470       70.77710       16.19276
H         87.36315       72.16983       17.25355
H         87.56193       69.69524       16.83626
H         86.02425       69.39170       17.72058
H         86.19127       72.13507       19.45473
H         85.29907       73.12499       18.29027
H         84.70496       71.46309       18.67009
H         87.07904       70.13389       19.84615
H         88.02291       68.83434       19.06354
H         88.58915       70.54837       18.93234
N         87.58441       71.63560       14.39636
C         88.29149       71.21184       13.19773
C         89.11668       69.95266       13.46959
O         88.80281       68.94800       12.84662
C         89.06896       72.38913       12.55754
C         88.17331       73.52486       12.11230
O         88.72173       74.60238       11.51999
O         86.96275       73.48700       12.27533
H         87.96158       72.43850       14.90699
H         87.53625       70.94780       12.42003
H         89.60650       72.01740       11.65920
H         89.79974       72.82293       13.25804
N         90.15279       69.85535       14.36239
C         90.68444       70.95468       15.16001
C         91.84648       70.55047       16.06873
O         92.17444       69.37305       16.10824
H         90.58922       68.92556       14.44761
H         89.87497       71.37330       15.78523
H         91.08022       71.68482       14.45366
N         92.55736       71.43440       16.84517
C         92.37165       72.88101       16.97257
C         90.99807       73.17271       17.57150
O         90.11565       73.59301       16.83728
C         92.69363       73.63936       15.65977
C         92.90484       75.11891       15.86763
O         93.20086       75.82158       14.91487
O         92.81104       75.67499       17.09188
H         93.32015       71.03600       17.41568
H         93.16247       73.25618       17.65079
H         91.90443       73.52179       14.90246
H         93.64679       73.23796       15.25055
N         90.69183       72.92591       18.88286
C         91.66189       72.64473       19.93262
C         91.55007       71.27012       20.52888
O         90.71562       70.47290       20.13112
H         89.71006       73.02595       19.17608
H         91.54247       73.40596       20.73364
H         92.69914       72.72940       19.57750
N         92.46389       70.91331       21.47038
C         92.57829       69.56968       22.01977
C         91.42774       69.19072       22.92422
O         91.17322       67.99991       23.04623
C         93.88075       69.43062       22.84725
C         95.17300       69.61878       22.02545
C         95.43316       68.53107       21.00600
N         96.53636       68.59593       20.22699
O         94.67002       67.58388       20.88448
H         93.16231       71.62146       21.74463
H         92.61165       68.84817       21.17683
H         93.92608       68.43010       23.33172
H         93.85971       70.19420       23.65790
H         96.03068       69.62000       22.73139
H         95.15911       70.60291       21.51306
H         97.19685       69.38180       20.31594
H         96.73067       67.85876       19.53309
N         90.78388       70.11587       23.69306
C         89.82895       69.73852       24.73604
C         90.29539       70.17720       26.12170
O         89.65798       69.78396       27.08897
C         88.40990       70.28626       24.43408
C         87.89453       69.75146       23.09071
C         88.35125       71.82100       24.44934
H         91.00926       71.11204       23.55883
H         89.74728       68.63057       24.78686
H         87.72259       69.91663       25.22781
H         88.53069       70.10547       22.25155
H         87.89452       68.64065       23.09677
H         86.85387       70.09712       22.91440
H         88.67564       72.22083       25.43338
H         88.99454       72.25648       23.65756
H         87.30479       72.15117       24.28185
N         91.35760       71.01909       26.30148
C         91.78626       71.49898       27.60490
C         91.42579       72.96416       27.73908
O         90.68473       73.29201       28.65609
C         93.30531       71.28047       27.78507
C         93.67113       69.81880       27.83263
N         93.23155       69.03225       28.84325
O         94.39036       69.34518       26.96553
H         91.86638       71.39324       25.49150
H         91.25674       70.96409       28.42476
H         93.65037       71.74666       28.73344
H         93.85002       71.77349       26.94861
H         92.64511       69.41979       29.59687
H         93.49308       68.03595       28.88529
N         91.93509       73.90782       26.89460
C         91.70902       75.34022       27.08969
C         91.25510       76.05668       25.82942
O         91.35357       75.49401       24.75135
C         93.00916       75.95334       27.65493
C         94.22699       75.61681       26.81345
C         94.40407       76.15455       25.52721
C         95.19206       74.72495       27.31502
C         95.51677       75.80375       24.75787
C         96.30216       74.37199       26.54360
C         96.46887       74.90776       25.26340
O         97.54397       74.55510       24.53051
H         92.58400       73.60839       26.15069
H         90.90505       75.50174       27.84050
H         93.13907       75.50329       28.66366
H         92.92195       77.05042       27.80141
H         93.68692       76.84454       25.11376
H         95.07885       74.28672       28.29895
H         95.63517       76.22595       23.76783
H         97.03026       73.67635       26.94072
H         97.69566       74.90209       23.63998
N         90.80324       77.34861       25.93164
C         90.40731       78.26412       24.85593
C         89.06120       77.94279       24.20332
O         88.20954       78.82226       24.19435
C         91.55116       78.49671       23.85019
C         91.28405       79.73009       22.96584
C         92.47109       80.05322       22.10534
O         93.65639       80.34891       22.67435
O         92.36232       80.07972       20.89031
H         90.78603       77.75606       26.87951
H         90.26183       79.25481       25.34854
H         91.72795       77.59595       23.22482
H         92.46914       78.71155       24.43919
H         91.09279       80.61642       23.61083
H         90.38669       79.55818       22.33300
N         88.77807       76.72962       23.64656
C         87.50935       76.41552       22.98975
C         86.31531       76.57607       23.93000
O         85.19214       76.56868       23.44399
C         87.48733       74.95040       22.47093
C         88.66137       74.51557       21.57297
C         88.69393       75.21440       20.25455
O         89.65138       75.90329       19.94004
O         87.70735       74.99671       19.37116
H         89.48636       76.00619       23.68065
H         87.39502       77.12191       22.13744
H         86.53065       74.75518       21.93574
H         87.51246       74.29258       23.36262
H         88.56317       73.42769       21.36794
H         89.63173       74.64435       22.08811
N         86.46631       76.68210       25.28314
C         85.33827       76.82639       26.17622
H         84.65323       75.95908       26.06875
H         85.69392       76.86864       27.22826
H         84.79260       77.76623       25.94812
H         87.40088       76.63761       25.71223
Ca        87.88169       75.79169       17.28146
O         89.84579       75.43733       14.45530
H         90.21576       76.11967       13.84130
H         88.87650       75.42484       14.25820
O         88.25264       78.56482       18.34437
H         88.99718       79.12812       18.67398
H         87.50755       79.19719       18.18906
O         90.47367       77.56951       16.54613
H         91.18386       77.70046       15.86910
H         90.95793       77.48836       17.40561

Ca 1.0



