%chk=apoCaM-CA-Ng.loop2.water4.frame1302.chk
%nprocshared=20
%mem=10GB
%nosave
#b3lyp/svp scf=(tight,noincore,xqc) Test 
#IOP(5/87=12) Density=Current Pop=(MK,readradii) iop(6/33=2) iop(6/42=6)

apoCaM-CA-Ng.loop2.water4.frame1302 

   -2  1 
C         42.72483       22.61671       85.20194
C         42.15130       23.77792       85.96407
O         42.69691       24.11235       87.00568
H         43.61266       22.20592       85.72905
H         41.96364       21.81107       85.12769
H         43.03733       22.93844       84.18770
N         41.03463       24.44812       85.55886
C         40.27682       24.15844       84.34012
C         38.91557       23.54013       84.64168
O         38.19388       23.23255       83.70278
C         40.14768       25.43587       83.47821
C         39.35919       26.55689       84.11051
O         39.20430       27.60121       83.49854
O         38.81262       26.42636       85.33314
H         40.69425       25.19759       86.17936
H         40.81190       23.41058       83.72115
H         39.65326       25.17193       82.51800
H         41.16784       25.81041       83.24518
N         38.51408       23.28399       85.91919
C         37.25930       22.62299       86.24785
C         36.04726       23.43511       85.83060
O         35.17377       22.87668       85.18147
C         37.19087       22.34614       87.75488
H         39.14054       23.52308       86.70077
H         37.22945       21.62738       85.74829
H         37.22129       23.29071       88.33777
H         36.25643       21.79688       88.00043
H         38.05124       21.71018       88.05799
N         35.91046       24.74612       86.19179
C         34.68036       25.50847       85.97655
C         34.76551       26.62048       84.88439
O         36.02790       26.73784       84.30591
C         34.15643       26.08322       87.31958
C         35.15657       26.70507       88.29830
O         35.99903       27.71728       87.98851
O         35.17954       26.27991       89.44253
H         36.69585       25.20818       86.67376
H         33.88120       24.82309       85.61809
H         33.68491       25.23789       87.86948
H         33.34361       26.80888       87.10107
N         33.72413       26.46915       83.85547
C         33.56742       27.64657       82.98792
C         32.88883       28.81185       83.68243
O         31.79551       28.64044       84.20280
H         32.79841       26.26169       84.29887
H         32.91457       27.35068       82.13940
H         34.54628       27.94158       82.55140
N         33.46973       30.04463       83.68280
C         32.87172       31.23314       84.28198
C         32.61862       32.25124       83.18252
O         33.23817       33.30596       83.14896
C         33.77798       31.77414       85.40595
C         33.89833       30.77461       86.53231
N         33.45559       31.06846       87.77677
O         34.39846       29.68286       86.31871
H         34.37981       30.15949       83.21494
H         31.88646       31.01110       84.75068
H         33.32983       32.71299       85.79918
H         34.78861       32.01502       85.01265
H         33.02442       31.97974       87.98696
H         33.54101       30.37523       88.53541
N         31.67679       31.97020       82.24010
C         31.32177       32.82731       81.11731
C         30.75876       34.18114       81.52666
O         30.79554       34.51723       82.70173
H         31.17053       31.07405       82.31830
H         30.53761       32.28205       80.55403
H         32.19621       32.97162       80.44882
N         30.16387       35.02197       80.62716
C         29.91649       34.67489       79.22786
C         31.15405       34.78903       78.35187
O         31.13860       34.20867       77.27443
C         28.76621       35.52100       78.62658
C         27.44899       35.30451       79.38820
O         29.11187       36.88242       78.64213
H         29.76383       35.89949       80.99522
H         29.55283       33.62741       79.18329
H         28.61053       35.18357       77.57404
H         28.52125       37.33568       77.98484
H         27.53169       35.63264       80.44515
H         26.63391       35.88590       78.90851
H         27.16714       34.22991       79.37042
N         32.21212       35.58871       78.68522
C         33.36980       35.78476       77.80711
C         34.69347       35.48085       78.51950
O         34.68352       35.32858       79.73306
C         33.33957       37.22502       77.18196
C         33.04192       38.38644       78.17145
C         32.28351       37.27526       76.06375
C         34.04175       38.54728       79.31095
H         32.16992       36.12552       79.56354
H         33.31550       35.04432       76.98469
H         34.31199       37.43437       76.68939
H         32.02394       38.27161       78.60414
H         33.04915       39.33969       77.59748
H         32.50762       36.51237       75.28749
H         31.26471       37.09045       76.46509
H         32.29352       38.26871       75.56488
H         34.01102       37.68002       79.99424
H         35.06795       38.68539       78.91235
H         33.76483       39.44110       79.90992
N         35.88893       35.32824       77.85570
C         36.04653       35.30502       76.39994
C         36.97675       36.39452       75.88398
O         37.72153       36.99872       76.64193
C         36.55588       33.92170       75.95128
C         35.61477       32.82127       76.36059
O         36.03574       31.84676       77.18942
O         34.46936       32.80032       75.93868
H         36.73267       35.13921       78.41960
H         35.07760       35.47191       75.89965
H         37.55446       33.73598       76.40467
H         36.66607       33.89153       74.84557
N         36.88349       36.73832       74.56561
C         37.59616       37.82569       73.88838
C         37.52335       39.12511       74.68326
O         36.42682       39.47351       75.10871
C         36.88297       38.06327       72.52307
C         37.36143       39.27814       71.75852
C         38.59565       39.28502       71.08995
C         36.55306       40.42993       71.71502
C         39.01862       40.43061       70.40449
C         36.98045       41.57149       71.03515
C         38.21324       41.57331       70.38090
H         36.17627       36.22534       74.01455
H         38.65327       37.53538       73.72097
H         35.80506       38.21557       72.75835
H         36.93747       37.16301       71.87303
H         39.22975       38.40751       71.10273
H         35.59650       40.45187       72.22286
H         39.97246       40.43548       69.89381
H         36.35515       42.45510       71.01965
H         38.54226       42.46058       69.85573
N         38.59680       39.96754       74.83502
C         39.91802       39.79495       74.24126
C         40.87897       39.00412       75.11279
O         41.64238       38.22811       74.55368
C         40.37679       41.24287       74.03022
C         39.82358       41.95568       75.24401
C         38.44106       41.31162       75.36991
H         39.91030       39.34596       73.23506
H         41.46371       41.37386       73.83759
H         39.82354       41.64485       73.14913
H         40.45843       41.68618       76.10822
H         39.80919       43.06403       75.17954
H         38.07825       41.33070       76.41983
H         37.72312       41.85092       74.71192
N         40.93330       39.15015       76.46647
C         41.95649       38.51420       77.28799
C         43.30628       39.16651       76.98611
O         43.42625       40.36233       77.21602
C         41.59976       38.69758       78.78136
C         42.58922       38.01156       79.73354
C         42.17297       38.21895       81.16262
O         41.87659       37.16092       81.94098
O         42.10548       39.34646       81.62698
H         40.22286       39.73043       76.93462
H         41.95374       37.42343       77.07872
H         40.59014       38.26229       78.95460
H         41.55144       39.78437       79.01838
H         43.61036       38.42792       79.59980
H         42.61782       36.92294       79.51092
N         44.37795       38.49516       76.47625
C         44.37316       37.09172       76.13001
H         43.62553       36.89480       75.33637
H         45.37073       36.80238       75.73447
H         44.15365       36.47356       77.02412
H         45.25279       39.01954       76.31547
Ca        36.68610       28.11493       85.91130
O         40.01540       28.81937       87.13597
H         40.83572       28.26508       87.12216
H         40.17897       29.48858       87.84738
O         36.92152       30.32341       83.65700
H         36.81517       30.07131       82.70564
H         36.75857       31.29998       83.67425
O         39.21273       31.20660       85.38823
H         39.34272       31.42047       84.43029
H         38.74989       31.99941       85.75915
O         37.32684       30.62751       87.89159
H         36.36343       30.78495       88.05213
H         37.78319       31.30765       88.44743

Ca 1.0



