%chk=apoCaM-CA-Ng.loop1.water3.frame1413.chk
%nprocshared=20
%mem=10GB
%nosave
#b3lyp/svp scf=(tight,noincore,xqc) Test 
#IOP(5/87=12) Density=Current Pop=(MK,readradii) iop(6/33=2) iop(6/42=6)

apoCaM-CA-Ng.loop1.water3.frame1413 

   0  1 
C         63.55759       78.23758      111.66324
C         63.83457       79.32796      110.66982
O         63.60818       79.11665      109.48697
H         62.48274       77.96556      111.63300
H         64.16800       77.34507      111.40865
H         63.81785       78.55321      112.69580
N         64.35817       80.51729      111.08024
C         64.72863       81.59214      110.17138
C         66.23675       81.71283      110.22535
O         66.78252       82.72185      110.65066
C         63.97548       82.88056      110.55095
C         64.25317       83.99528      109.57838
O         64.80154       85.14706      110.00859
O         63.97389       83.86496      108.39657
H         64.55584       80.65338      112.08408
H         64.45120       81.34193      109.12236
H         64.25619       83.19264      111.58023
H         62.88256       82.67779      110.53470
N         66.96569       80.65156      109.79261
C         68.41580       80.55622      109.84560
C         69.01411       80.72783      108.45775
O         69.82744       81.63299      108.32804
C         68.84768       79.25876      110.56049
C         68.34614       79.25622      112.01416
C         68.70134       77.95889      112.74576
C         68.21246       78.01844      114.20036
N         68.49274       76.76845      114.90406
H         66.43659       79.85533      109.42030
H         68.82849       81.39328      110.45562
H         69.95796       79.19327      110.56595
H         68.45637       78.36583      110.03617
H         67.24023       79.36906      112.02932
H         68.79916       80.11980      112.55030
H         69.80233       77.80540      112.73282
H         68.21314       77.10521      112.22562
H         67.11565       78.20713      114.21981
H         68.72083       78.85855      114.72526
H         67.98329       75.97874      114.44490
H         69.52049       76.57581      114.90439
H         68.16246       76.85315      115.89273
N         68.67385       80.02249      107.33665
C         67.68645       78.95263      107.19730
C         66.40807       79.52822      106.59381
O         66.31837       80.74192      106.46879
C         68.31060       77.77851      106.41442
C         68.83555       78.16752      105.06554
O         68.08780       78.58553      104.19635
O         70.15271       78.05543      104.82057
H         69.10615       80.35117      106.45808
H         67.40028       78.51590      108.16303
H         67.58640       76.94601      106.29858
H         69.16181       77.39030      107.01693
N         65.35507       78.73434      106.24145
C         64.07877       79.27674      105.78517
C         63.82576       78.99951      104.32610
O         64.67604       78.43235      103.66584
H         65.44415       77.70969      106.30833
H         64.03531       80.37828      105.91378
H         63.26669       78.83521      106.40170
N         62.67848       79.44585      103.74114
C         62.34179       79.25374      102.32576
C         60.94328       78.64365      102.21082
O         60.30458       78.49156      103.24395
C         62.45454       80.62882      101.63593
C         63.87109       81.11543      101.75361
O         64.12995       82.14029      102.36372
O         64.86543       80.36853      101.23718
H         62.02587       79.99569      104.32235
H         63.05864       78.55123      101.84856
H         61.75590       81.34951      102.11726
H         62.21582       80.58073      100.56270
N         60.35251       78.23400      101.04542
C         60.89740       78.24268       99.69577
C         62.08149       77.32272       99.53827
O         62.01021       76.18179       99.96882
H         59.39701       77.85023      101.12499
H         61.10059       79.26705       99.33389
H         60.11074       77.84235       99.01922
N         63.17601       77.72883       98.83786
C         64.33245       76.86989       98.59419
C         65.08979       76.63527       99.89405
O         65.42191       77.59949      100.56320
C         65.22789       77.48060       97.48741
C         66.43794       76.59702       97.16020
O         65.66450       78.76370       97.85159
H         63.15846       78.67099       98.41698
H         63.98221       75.89964       98.17611
H         64.60818       77.53253       96.55725
H         65.31246       79.40555       97.18039
H         67.11029       76.50000       98.03826
H         66.10360       75.58285       96.85338
H         67.01632       77.04291       96.32312
N         65.39905       75.36123      100.28948
C         66.09507       74.97847      101.52316
C         67.48154       75.59426      101.62024
O         67.60854       76.81234      101.66639
C         65.27337       75.30168      102.79776
C         63.85358       74.69458      102.71106
C         66.01845       74.81103      104.06159
C         62.96270       75.04010      103.90683
H         65.12030       74.58808       99.66785
H         66.20368       73.87005      101.50208
H         65.17868       76.38857      102.85579
H         63.91419       73.58999      102.60854
H         63.35160       75.09923      101.81096
H         67.02538       75.26956      104.13979
H         65.48815       75.10635      104.98765
H         66.13368       73.70631      104.04037
H         63.34647       74.58329      104.84111
H         62.89121       76.14088      104.03354
H         61.94421       74.63499      103.73480
N         68.57455       74.79283      101.72567
C         69.92499       75.30172      101.88732
C         70.77596       75.00599      100.66985
O         71.92592       75.40180      100.67426
C         70.56500       74.78399      103.20030
C         70.70695       73.26004      103.26539
O         69.79066       75.21954      104.28736
H         68.43958       73.77000      101.68414
H         69.91847       76.41352      101.96586
H         71.58522       75.23448      103.26592
H         70.40618       75.33754      105.05676
H         71.31752       72.88536      102.41830
H         71.21295       72.98016      104.21382
H         69.71409       72.76578      103.25363
N         70.26318       74.36970       99.56375
C         71.03727       74.23830       98.33495
C         71.33042       75.64109       97.82861
O         70.42868       76.28528       97.31671
C         70.27013       73.40215       97.26877
C         70.08875       71.94499       97.72008
O         69.01005       73.97805       97.02275
H         69.29854       74.02274       99.57105
H         71.98897       73.71406       98.57163
H         70.87226       73.40409       96.33117
H         68.63667       73.53786       96.21555
H         69.55586       71.37020       96.93239
H         71.07770       71.46956       97.88733
H         69.49412       71.88111       98.65511
N         72.55457       76.21068       98.05920
C         72.90570       77.60026       97.76626
C         72.04098       78.59548       98.52633
O         70.82421       78.52815       98.44658
C         72.87660       77.91006       96.26450
C         73.83168       76.99075       95.49694
C         73.97395       77.44572       94.04163
C         74.84698       76.49828       93.20330
N         76.21142       76.37587       93.72230
H         73.28179       75.63696       98.51172
H         73.95959       77.76026       98.08950
H         73.21667       78.96326       96.14016
H         71.85033       77.82744       95.84771
H         73.44822       75.94796       95.53798
H         74.82989       77.02976       95.98285
H         74.41162       78.46862       94.02116
H         72.96704       77.48827       93.57282
H         74.88853       76.90175       92.16765
H         74.37350       75.49286       93.16329
H         76.65552       77.31866       93.80908
H         76.21330       75.89107       94.64781
H         76.77336       75.79578       93.05870
N         72.60990       79.61739       99.22324
C         71.80684       80.62650       99.90196
C         71.10949       80.03565      101.11866
O         69.89036       80.10306      101.15417
C         72.62166       81.89353      100.23575
C         73.10558       82.59211       98.95395
C         73.84163       83.85877       99.27645
O         73.42988       84.93070       98.86216
O         74.96687       83.81787      100.01506
H         73.63697       79.71536       99.21500
H         71.01672       80.98520       99.20052
H         73.49344       81.66689      100.87245
H         71.95870       82.60143      100.78259
H         72.22757       82.83117       98.31266
H         73.78381       81.92579       98.38059
N         71.74863       79.42055      102.15534
C         73.17416       79.20429      102.26767
H         73.71840       80.16087      102.34418
H         73.38852       78.64117      103.20126
H         73.54509       78.59944      101.41666
H         71.16655       79.05216      102.91637
Ca        67.02775       80.76985      101.71337
O         68.17653       79.48359       98.88063
H         68.27146       78.49991       98.92630
H         67.37342       79.67202       99.42541
O         68.20983       82.69199       99.91539
H         67.83781       82.48279       99.02239
H         68.01827       83.65377      100.04874
O         67.16530       82.49073      104.16383
H         66.47285       83.01484      103.68850
H         66.81264       81.56626      104.16410

Ca 1.0



