%chk=apoCaM-CA-Ng.loop3.water3.frame671.chk
%nprocshared=20
%mem=10GB
%nosave
#b3lyp/svp scf=(tight,noincore,xqc) Test 
#IOP(5/87=12) Density=Current Pop=(MK,readradii) iop(6/33=2) iop(6/42=6)

apoCaM-CA-Ng.loop3.water3.frame671 

   0  1 
C        -12.00427       62.58642      101.71482
C        -11.70494       63.80926      102.52727
O        -12.62443       64.43616      103.03495
H        -11.60951       62.71071      100.68611
H        -11.51596       61.70724      102.18910
H        -13.09786       62.39891      101.66972
N        -10.41256       64.17977      102.73233
C        -10.04371       65.27023      103.62096
C        -10.47122       66.62483      103.06815
O        -10.00602       67.00247      102.00190
C         -8.52355       65.22182      103.89915
C         -8.06296       66.09354      105.03465
O         -6.76038       66.08614      105.37132
O         -8.84037       66.79881      105.65801
H         -9.66847       63.59930      102.31356
H        -10.54653       65.06824      104.57343
H         -7.96227       65.47957      102.97585
H         -8.24860       64.18716      104.18814
N        -11.34250       67.41989      103.75923
C        -11.73611       68.75582      103.31396
C        -10.53575       69.68239      103.19015
O        -10.38427       70.28408      102.13578
C        -12.77851       69.40574      104.26112
C        -14.18529       68.79588      104.10307
C        -15.23493       69.59181      104.90155
C        -16.66459       69.14073      104.55780
N        -17.65903       69.93949      105.27663
H        -11.73004       67.06807      104.64631
H        -12.21192       68.69071      102.30897
H        -12.87739       70.47390      103.96231
H        -12.43410       69.37872      105.31882
H        -14.19683       67.72676      104.40615
H        -14.45996       68.86187      103.02705
H        -15.15287       70.66913      104.63678
H        -15.04488       69.47969      105.99130
H        -16.79772       68.06620      104.81024
H        -16.83168       69.26697      103.46394
H        -17.54835       70.95327      105.04193
H        -18.61746       69.63532      104.98844
H        -17.55519       69.80304      106.30791
N         -9.64557       69.85267      104.21149
C         -8.54285       70.81757      104.14861
C         -7.18473       70.18109      103.86829
O         -6.21280       70.91698      103.76797
C         -8.53181       71.70228      105.41577
C         -8.21509       70.98870      106.70732
O         -7.97597       69.79215      106.73689
O         -8.18514       71.69414      107.85343
H         -9.75816       69.27500      105.05700
H         -8.70776       71.50985      103.29369
H         -9.52769       72.18588      105.51643
H         -7.77616       72.50658      105.28294
N         -7.04412       68.84406      103.64762
C         -5.79616       68.23343      103.21079
C         -4.64389       68.25825      104.20260
O         -3.57108       67.83028      103.80095
H         -7.87639       68.24560      103.67587
H         -5.47137       68.75226      102.28223
H         -5.98393       67.17111      102.94454
N         -4.75149       68.72950      105.48196
C         -3.60254       68.83416      106.38471
C         -3.79467       68.02540      107.65857
O         -4.74583       68.26257      108.38657
C         -3.36327       70.30933      106.75385
C         -2.99826       71.13446      105.54494
N         -3.75079       72.19605      105.17551
O         -2.00158       70.84669      104.89834
H         -5.66182       69.06474      105.82402
H         -2.67451       68.47191      105.89075
H         -2.51726       70.37442      107.47303
H         -4.26949       70.72094      107.25082
H         -4.59186       72.46057      105.70823
H         -3.48912       72.75829      104.35208
N         -2.85132       67.11308      108.03319
C         -2.86573       66.39382      109.29814
C         -3.90950       65.30693      109.34596
O         -3.86946       64.43018      108.49442
H         -2.02470       66.97950      107.43106
H         -2.96363       67.11154      110.14115
H         -1.88648       65.88037      109.41547
N         -4.81526       65.24514      110.36875
C         -5.77200       64.14538      110.52654
C         -6.90411       64.19618      109.47458
O         -6.43632       64.50994      108.20405
C         -6.41690       64.19530      111.93282
C         -5.42567       63.88999      113.02931
C         -4.86744       62.60361      113.12513
C         -5.06890       64.86393      113.97685
C         -3.96958       62.29532      114.14959
C         -4.16298       64.55502      114.99822
C         -3.61305       63.27125      115.09023
O         -2.74929       62.98581      116.08552
H         -4.76138       65.96614      111.10500
H         -5.22343       63.18412      110.41514
H         -7.23402       63.44675      112.02316
H         -6.87354       65.19935      112.07508
H         -5.13876       61.83383      112.41336
H         -5.48762       65.86118      113.92563
H         -3.55582       61.29664      114.21273
H         -3.89131       65.31294      115.72220
H         -2.35436       62.10776      116.18733
N         -7.68835       62.94301      109.47846
C         -8.79334       62.79563      108.50027
C         -9.69608       64.01508      108.54465
O         -9.24362       65.09601      108.20506
C         -8.31512       62.47231      107.03899
C         -9.49694       62.30092      106.04415
C         -7.39578       61.23591      106.98355
C        -10.46857       61.16130      106.35581
H         -7.07906       62.09572      109.50625
H         -9.37778       61.91665      108.84466
H         -7.72859       63.32428      106.64337
H         -9.08400       62.12604      105.02663
H        -10.07803       63.24280      106.00313
H         -7.90134       60.33849      107.39652
H         -7.09426       61.02861      105.93475
H         -6.45707       61.40397      107.54810
H        -11.25463       61.13580      105.57157
H         -9.95109       60.18092      106.35250
H        -10.96886       61.31727      107.33208
N        -10.97864       63.92209      108.99512
C        -11.84478       65.08770      109.13859
C        -13.02875       64.76006      110.00101
O        -13.86021       63.95163      109.60804
C        -12.38712       65.62446      107.79933
O        -11.37778       66.18261      107.02147
H        -11.31214       63.00728      109.33698
H        -11.27170       65.89273      109.64326
H        -13.12057       66.43624      107.99761
H        -12.93731       64.83339      107.23534
H        -10.95966       65.41954      106.56349
N        -13.17826       65.40211      111.19097
C        -14.36556       65.28102      112.01234
C        -14.97305       66.66876      112.23010
O        -14.32217       67.65268      111.90547
C        -13.97586       64.63470      113.34721
H        -12.43165       66.03612      111.51663
H        -15.09821       64.63409      111.48987
H        -14.84850       64.50594      114.01471
H        -13.53552       63.63123      113.16267
H        -13.22179       65.25899      113.87320
N        -16.20299       66.86976      112.78615
C        -17.15055       65.81418      113.10621
C        -17.32172       65.68940      114.60659
O        -17.06414       66.65694      115.30956
C        -18.47680       66.10081      112.40057
H        -16.49852       67.84364      112.96286
H        -16.77492       64.85507      112.72950
H        -18.30952       66.16145      111.30335
H        -19.21442       65.29947      112.59337
H        -18.89998       67.06715      112.74896
N        -17.63045       64.50552      115.21378
C        -17.94272       63.25513      114.52596
C        -16.77971       62.29643      114.66870
O        -16.23636       61.88539      113.65194
C        -19.24898       62.65731      115.07659
C        -20.44128       63.59391      114.83100
C        -21.70972       63.00487      115.37196
O        -22.64762       62.77491      114.62535
O        -21.82529       62.74160      116.68760
H        -17.61465       64.48400      116.24567
H        -18.10768       63.40396      113.44144
H        -19.14227       62.46518      116.16642
H        -19.44615       61.68849      114.56561
H        -20.55245       63.76489      113.73837
H        -20.26971       64.57322      115.32707
N        -16.32480       61.91384      115.89450
C        -15.19477       61.02426      116.07975
H        -14.40458       61.55021      116.65536
H        -15.51996       60.12802      116.64694
H        -14.75387       60.68752      115.11727
H        -16.78683       62.27498      116.74153
Ca        -6.98966       66.72425      108.11174
O        -10.16332       68.70834      108.55257
H        -10.28461       69.68183      108.68601
H        -11.05154       68.32058      108.75262
O         -6.78494       69.39422      110.27385
H         -7.31591       69.52912      109.44952
H         -6.38943       70.28165      110.46330
O         -8.69396       66.81915      110.83224
H         -8.26043       67.41255      111.49515
H         -9.65035       66.82868      111.08483

Ca 1.0



