%chk=apoCaM-CA-Ng.loop2.water4.frame1341.chk
%nprocshared=20
%mem=10GB
%nosave
#b3lyp/svp scf=(tight,noincore,xqc) Test 
#IOP(5/87=12) Density=Current Pop=(MK,readradii) iop(6/33=2) iop(6/42=6)

apoCaM-CA-Ng.loop2.water4.frame1341 

   -2  1 
C         48.07506       38.83582      111.03369
C         47.87961       39.53842      109.71789
O         48.37314       40.64744      109.57497
H         48.67187       39.46401      111.72877
H         47.08764       38.64139      111.50387
H         48.61469       37.87845      110.87886
N         47.16176       38.99661      108.69179
C         46.51676       37.68513      108.73042
C         44.99439       37.79115      108.71638
O         44.34790       36.75426      108.77230
C         47.06681       36.78614      107.59608
C         46.77459       37.24910      106.19209
O         46.05076       38.35561      105.95722
O         47.19421       36.60124      105.24678
H         47.06096       39.56441      107.83668
H         46.76180       37.16117      109.67525
H         46.64581       35.76368      107.70881
H         48.17008       36.71483      107.71545
N         44.35048       38.99783      108.68710
C         42.89938       39.14524      108.75443
C         42.32691       39.78825      107.49868
O         41.12360       40.00418      107.45300
C         42.55339       39.97972      109.98989
H         44.89893       39.86889      108.64226
H         42.40296       38.15672      108.86569
H         42.94564       39.47951      110.90104
H         43.00375       40.99290      109.91486
H         41.45238       40.08113      110.09624
N         43.11197       40.07232      106.42168
C         42.61293       40.61408      105.16577
C         42.67327       39.55487      104.07971
O         43.09212       38.43494      104.34035
C         43.34741       41.93799      104.81318
C         44.82634       42.03178      105.14514
O         45.18770       42.90833      105.91453
O         45.77402       41.21533      104.64039
H         44.11246       39.84387      106.45276
H         41.52846       40.85540      105.22857
H         42.85652       42.73188      105.41966
H         43.17617       42.21610      103.75353
N         42.21143       39.84332      102.83036
C         42.16934       38.89353      101.73519
C         43.22581       39.27895      100.74828
O         44.38923       39.17169      101.09393
H         41.88089       40.79773      102.62483
H         41.15056       38.91174      101.29109
H         42.37252       37.85216      102.06745
N         42.92414       39.75416       99.51125
C         43.96906       40.18388       98.58714
C         43.83095       41.65510       98.25238
O         42.86269       42.29407       98.64258
C         43.93896       39.30674       97.32534
C         44.20586       37.86243       97.67432
N         43.28292       36.90580       97.42375
O         45.26975       37.55429       98.19200
H         41.93633       39.83082       99.22277
H         44.97505       40.07852       99.04949
H         44.72151       39.63260       96.60808
H         42.94995       39.41603       96.82966
H         42.37888       37.14286       96.99080
H         43.47233       35.92237       97.66796
N         44.81483       42.26026       97.53271
C         44.79919       43.65255       97.12419
C         44.86846       44.64077       98.27548
O         44.85286       44.22895       99.42669
H         45.62304       41.69491       97.23137
H         43.89208       43.84534       96.51231
H         45.70143       43.81961       96.49705
N         44.98414       45.98647       98.05726
C         45.05735       46.60053       96.72947
C         46.43131       47.20892       96.44996
O         46.66905       47.58755       95.31215
C         43.95375       47.67337       96.56869
C         42.55113       47.09466       96.78255
O         44.17085       48.71548       97.48691
H         45.04090       46.60478       98.88259
H         44.90184       45.84082       95.94055
H         44.01660       48.06742       95.52630
H         43.76574       49.53484       97.09863
H         42.43675       46.70997       97.81860
H         41.79106       47.88921       96.62265
H         42.35784       46.27031       96.06493
N         47.36152       47.38403       97.43519
C         48.65326       48.04071       97.24468
C         49.75697       47.19496       97.88572
O         49.57837       46.77942       99.02180
C         48.56994       49.46815       97.86813
C         47.62867       50.39669       97.04409
C         49.93833       50.14499       98.05947
C         48.09783       50.70070       95.60669
H         47.12065       47.13040       98.40243
H         48.87326       48.16180       96.17722
H         48.14620       49.36461       98.89225
H         47.53290       51.36663       97.57688
H         46.61496       49.94995       96.99170
H         50.47848       50.30589       97.10939
H         49.79959       51.13208       98.54796
H         50.57593       49.53190       98.72720
H         49.08749       51.20040       95.59691
H         48.15368       49.79237       94.97545
H         47.37407       51.38491       95.11858
N         50.96190       46.94283       97.28104
C         51.38047       47.52072       96.00353
C         52.88250       47.76387       95.92556
O         53.63583       47.29285       96.76787
C         50.89142       46.66200       94.81627
C         51.49133       45.28097       94.82420
O         52.18879       44.91044       93.89347
O         51.24948       44.43959       95.84786
H         51.65558       46.41303       97.83207
H         50.95716       48.53604       95.91949
H         51.15701       47.17235       93.86473
H         49.78723       46.56051       94.84068
N         53.37286       48.53419       94.91295
C         54.78972       48.79435       94.68143
C         55.10305       50.27920       94.82908
O         54.24128       51.09135       94.51183
C         55.17545       48.23710       93.29335
C         54.36276       48.81842       92.15392
C         53.35400       48.04568       91.54970
C         54.59440       50.12404       91.68480
C         52.58392       48.57375       90.51006
C         53.82686       50.64527       90.63778
C         52.82027       49.87220       90.05363
H         52.69701       48.95482       94.25560
H         55.39537       48.23212       95.41512
H         54.98462       47.14241       93.34798
H         56.25952       48.36172       93.08546
H         53.15082       47.03935       91.89419
H         55.37247       50.73710       92.12067
H         51.80221       47.97569       90.05977
H         54.01170       51.64963       90.27903
H         52.22404       50.27827       89.24666
N         56.30520       50.73615       95.30311
C         57.42612       49.90500       95.72108
C         57.12518       49.19448       97.02831
O         57.53693       48.05107       97.17478
C         58.58462       50.90573       95.82242
C         57.90095       52.17686       96.26645
C         56.61932       52.14912       95.43144
H         57.72171       49.15768       94.95180
H         59.45109       50.57142       96.43291
H         58.95060       51.10307       94.78804
H         57.64639       52.05264       97.33959
H         58.49892       53.10750       96.16799
H         55.83107       52.72551       95.96357
H         56.77676       52.56346       94.41154
N         56.34052       49.76593       97.98505
C         55.97310       49.07485       99.21216
C         57.21839       48.90929      100.07858
O         57.75038       49.93162      100.48985
C         54.90552       49.87888       99.99028
C         53.59222       50.03416       99.20217
C         52.63033       50.90346       99.95848
O         52.23964       51.95248       99.47082
O         52.18935       50.53048      101.17473
H         55.95667       50.70562       97.81580
H         55.49638       48.11844       98.93982
H         55.31021       50.88879      100.22489
H         54.68019       49.35872      100.94791
H         53.13265       49.03726       99.02693
H         53.78144       50.50020       98.21224
N         57.78714       47.71226      100.41541
C         57.36632       46.39090       99.99014
H         56.49839       46.37574       99.31495
H         58.20705       45.90642       99.44972
H         57.12181       45.77892      100.88242
H         58.62293       47.73788      101.02045
Ca        45.66074       39.36618      103.37804
O         48.85943       39.27160      103.81073
H         49.61931       38.63829      103.85602
H         49.26072       40.15629      104.00188
O         46.83911       41.01325      101.03489
H         47.56071       41.67075      101.19802
H         46.01212       41.47565      101.32333
O         47.67440       37.39350      101.54252
H         48.55687       36.97072      101.69491
H         47.66471       37.60755      100.57581
O         44.90210       36.23135      102.90077
H         44.42682       36.04901      102.05152
H         44.26140       35.96378      103.60672

Ca 1.0



