%chk=apoCaM-CA-Ng.loop2.water4.frame1287.chk
%nprocshared=20
%mem=10GB
%nosave
#b3lyp/svp scf=(tight,noincore,xqc) Test 
#IOP(5/87=12) Density=Current Pop=(MK,readradii) iop(6/33=2) iop(6/42=6)

apoCaM-CA-Ng.loop2.water4.frame1287 

   -2  1 
C         74.86857       56.30489       -0.79510
C         74.91401       57.64310       -1.48938
O         75.22616       57.65324       -2.67176
H         73.84680       56.04340       -0.47327
H         75.18116       55.50083       -1.49587
H         75.56227       56.29077        0.07020
N         74.67267       58.83744       -0.86441
C         74.35050       58.99382        0.56016
C         74.58061       60.40426        1.14208
O         74.50516       60.50711        2.35922
C         72.90336       58.53159        0.86403
C         71.87345       59.30136        0.08218
O         71.15358       58.72361       -0.71674
O         71.71987       60.62314        0.27488
H         74.80045       59.66065       -1.45938
H         75.06562       58.35906        1.12813
H         72.68734       58.63451        1.94899
H         72.78282       57.46316        0.63200
N         74.87338       61.51746        0.39825
C         75.18288       62.82189        0.98248
C         74.17764       63.90226        0.58481
O         74.37180       65.04497        0.97632
C         76.58741       63.21886        0.51027
H         74.91081       61.47904       -0.62487
H         75.19435       62.77308        2.09257
H         76.89751       64.18977        0.94971
H         77.32249       62.44404        0.81691
H         76.61142       63.30482       -0.59892
N         73.09756       63.62472       -0.20093
C         72.15934       64.62584       -0.70073
C         70.72022       64.29936       -0.28221
O         70.24853       63.20358       -0.53530
C         72.34168       64.78864       -2.23082
C         72.23182       63.55823       -3.10500
O         72.33335       63.68590       -4.31402
O         72.01083       62.33196       -2.59823
H         72.95205       62.65787       -0.50084
H         72.40428       65.62899       -0.28652
H         73.35735       65.20719       -2.40571
H         71.60275       65.54155       -2.58225
N         69.97249       65.22354        0.39277
C         68.62712       64.99611        0.91768
C         67.55515       64.76013       -0.13723
O         67.39606       65.58793       -1.02250
H         70.39574       66.14203        0.59618
H         68.32133       65.90744        1.47706
H         68.65513       64.15882        1.64718
N         66.73395       63.66797       -0.04807
C         65.61858       63.37012       -0.95397
C         64.32187       63.27654       -0.17770
O         64.23626       62.48677        0.75384
C         65.82453       61.99757       -1.64312
C         66.90406       62.01196       -2.72711
N         66.44841       62.73568       -3.90920
O         68.02811       62.64276       -2.21721
H         66.89582       63.00430        0.72467
H         65.50927       64.14634       -1.74367
H         64.88186       61.66172       -2.13039
H         66.07035       61.24138       -0.86966
H         65.56890       62.29461       -4.26310
H         67.16752       62.60779       -4.65577
N         63.23165       63.99443       -0.57062
C         61.91065       63.80233        0.00973
C         61.36360       62.41921       -0.31586
O         62.05318       61.64829       -0.96979
H         63.32038       64.66479       -1.35026
H         61.22146       64.54181       -0.45027
H         61.94661       63.98108        1.10418
N         60.10780       62.01697        0.02998
C         59.13435       62.79903        0.78718
C         58.53747       61.99139        1.94222
O         57.62806       62.49856        2.58556
C         57.96988       63.19329       -0.15982
C         58.43219       64.07011       -1.32252
O         57.36000       62.03435       -0.67235
H         59.79970       61.09701       -0.32531
H         59.58409       63.72847        1.19522
H         57.23216       63.78618        0.43312
H         56.39705       62.23870       -0.79924
H         57.55719       64.33971       -1.95087
H         58.89024       65.00476       -0.93830
H         59.16577       63.52974       -1.95709
N         58.92474       60.70668        2.20700
C         58.15832       59.79179        3.04749
C         58.95872       59.33766        4.26118
O         60.12648       59.01070        4.10719
C         57.66253       58.61840        2.14296
C         56.43332       59.13065        1.34454
C         57.30997       57.34348        2.92882
C         55.93064       58.18625        0.25955
H         59.73519       60.30111        1.71919
H         57.27369       60.32503        3.41214
H         58.48839       58.33150        1.45379
H         56.68815       60.08639        0.84642
H         55.59981       59.33341        2.05590
H         56.48991       57.52653        3.65028
H         57.01516       56.52251        2.24552
H         58.20648       56.97195        3.46969
H         55.05484       58.65323       -0.23986
H         56.72716       58.02253       -0.49493
H         55.59931       57.21639        0.67903
N         58.41168       59.28345        5.52052
C         56.99850       59.52887        5.83894
C         56.38055       58.43467        6.69357
O         57.07309       57.54502        7.16205
C         56.82791       60.94558        6.42545
C         57.70803       61.21302        7.61294
O         58.54066       62.10513        7.56315
O         57.58036       60.48468        8.73717
H         59.03907       59.04674        6.30607
H         56.36217       59.47498        4.94413
H         55.76968       61.13072        6.70395
H         57.08568       61.67373        5.62426
N         55.03427       58.46105        6.91228
C         54.27995       57.50598        7.71519
C         53.04557       57.03519        6.93763
O         52.38618       57.89142        6.35822
C         53.81102       58.25475        8.97457
C         53.06840       57.34696        9.91640
C         51.66702       57.27092        9.86889
C         53.77376       56.55074       10.83354
C         50.98127       56.40720       10.72572
C         53.08302       55.69375       11.69468
C         51.68812       55.62076       11.63954
H         54.50219       59.24993        6.51233
H         54.91662       56.65508        8.04021
H         53.16635       59.11320        8.68119
H         54.68718       58.68741        9.50619
H         51.10903       57.86860        9.15853
H         54.85525       56.59420       10.87908
H         49.90213       56.34577       10.67788
H         53.62961       55.08375       12.40179
H         51.15492       54.95325       12.30308
N         52.58028       55.74474        6.93885
C         53.12629       54.62476        7.69383
C         54.23029       53.89270        6.94786
O         54.62463       52.83135        7.41390
C         51.88926       53.73602        7.89083
C         51.17597       53.88895        6.56572
C         51.30674       55.38974        6.33135
H         53.48986       54.90243        8.70081
H         52.09482       52.69206        8.21083
H         51.24185       54.20770        8.66703
H         51.77455       53.34820        5.79951
H         50.13138       53.51001        6.53725
H         51.25390       55.62158        5.24565
H         50.50361       55.93773        6.87457
N         54.81147       54.40205        5.82335
C         55.89365       53.73058        5.10891
C         55.54838       53.60291        3.62747
O         54.60812       54.24750        3.18224
C         57.18563       54.55583        5.31345
C         57.64249       54.61199        6.78465
C         58.12514       53.30099        7.34867
O         58.53576       53.25210        8.62968
O         58.17338       52.28935        6.66689
H         54.52185       55.32882        5.47819
H         56.02909       52.70447        5.50308
H         56.97517       55.59134        4.98269
H         58.03211       54.18910        4.70811
H         56.81263       54.98911        7.41777
H         58.48673       55.32991        6.85990
N         56.22203       52.77408        2.77669
C         57.27824       51.86632        3.17712
H         58.15974       52.40720        3.56085
H         56.90159       51.15858        3.94518
H         57.61358       51.27398        2.29972
H         55.92974       52.74677        1.78723
Ca        69.92145       61.60511       -2.81770
O         68.59604       58.92613       -3.19390
H         67.77908       59.07797       -3.73230
H         68.54622       57.97465       -2.92538
O         69.65292       62.15287       -5.72052
H         70.42614       61.54368       -5.61243
H         69.87520       62.94037       -5.16261
O         72.14079       59.68908       -3.98429
H         73.05543       59.97917       -4.22871
H         72.25013       58.75766       -3.66756
O         68.47551       60.00376       -0.08509
H         68.03260       60.66502        0.50358
H         67.73165       59.51819       -0.52249

Ca 1.0



