%chk=apoCaM-CA-Ng.loop3.water6.frame50.chk
%nprocshared=20
%mem=10GB
%nosave
#b3lyp/svp scf=(tight,noincore,xqc) Test 
#IOP(5/87=12) Density=Current Pop=(MK,readradii) iop(6/33=2) iop(6/42=6)

apoCaM-CA-Ng.loop3.water6.frame50 

   0  1 
C         46.30266       55.09888       30.82028
C         45.60552       55.58663       29.58549
O         44.85166       54.82108       29.00611
H         46.97593       55.87429       31.24062
H         45.55435       54.81413       31.58879
H         46.91306       54.20643       30.56270
N         45.82690       56.84663       29.10437
C         45.23602       57.36781       27.87121
C         45.73514       56.62225       26.63223
O         45.22634       56.88334       25.55109
C         43.68850       57.40987       27.94819
C         43.17086       58.28455       29.06480
O         41.96777       58.44440       29.19283
O         44.00970       58.91177       29.91312
H         46.46187       57.47028       29.62521
H         45.56533       58.42206       27.73357
H         43.26542       56.39184       28.05544
H         43.29778       57.83352       26.99784
N         46.78300       55.74659       26.69702
C         47.34774       55.05498       25.54420
C         47.30057       53.53907       25.71435
O         47.80574       52.84991       24.83788
C         48.79937       55.54375       25.33658
C         48.82869       57.01632       24.89014
C         50.26110       57.51671       24.66588
C         50.25590       58.93631       24.07795
N         51.61798       59.43009       23.87830
H         47.26026       55.58700       27.59495
H         46.77913       55.27714       24.61453
H         49.28030       54.94622       24.53141
H         49.38507       55.40303       26.27247
H         48.33551       57.66395       25.64741
H         48.26546       57.09631       23.93393
H         50.78496       56.84234       23.95379
H         50.80743       57.50884       25.63458
H         49.71160       59.62777       24.75866
H         49.72719       58.92243       23.09799
H         52.11065       59.50170       24.79793
H         52.14642       58.78948       23.24235
H         51.57682       60.37952       23.44164
N         46.69387       52.93600       26.78242
C         46.62937       51.48252       26.94699
C         45.83273       50.85173       25.81038
O         45.26000       51.57991       25.00909
C         45.99546       51.15656       28.32896
C         46.22536       49.74915       28.81084
O         47.36948       49.34457       28.92425
O         45.21241       48.96619       29.23898
H         46.27146       53.52039       27.51179
H         47.67653       51.10777       26.93283
H         44.91376       51.41724       28.33635
H         46.49691       51.79569       29.08836
N         45.74966       49.49893       25.66222
C         44.95014       48.89818       24.60576
C         43.45814       49.10806       24.80536
O         42.70747       48.76571       23.90252
H         46.28015       48.87887       26.28982
H         45.13521       47.80408       24.56220
H         45.26734       49.33535       23.63241
N         42.95029       49.63503       25.96071
C         41.53155       49.86550       26.20328
C         41.24081       51.35055       26.45217
O         40.08137       51.69865       26.61815
C         41.11211       48.98072       27.39815
C         39.64913       49.07751       27.74935
N         38.69370       48.73940       26.85254
O         39.32425       49.45906       28.86383
H         43.58910       49.86390       26.73521
H         40.93730       49.56616       25.31288
H         41.72359       49.26105       28.28517
H         41.33699       47.91931       27.15237
H         38.94492       48.40863       25.90998
H         37.69628       48.80739       27.10335
N         42.23439       52.28846       26.46381
C         42.00571       53.70971       26.65117
C         41.42118       54.01422       28.00207
O         40.38382       54.66455       28.06445
H         43.20918       52.01165       26.31733
H         41.35028       54.09773       25.84134
H         42.98243       54.23730       26.58163
N         42.03289       53.58050       29.13801
C         41.53083       53.91257       30.46682
C         42.00514       52.90973       31.51542
O         42.76815       52.00002       31.20172
C         41.95094       55.37239       30.79637
C         41.33720       55.94571       32.04898
C         39.94746       56.13802       32.13060
C         42.14225       56.28154       33.15214
C         39.37233       56.65025       33.29730
C         41.56303       56.78727       34.32041
C         40.17493       56.97298       34.39635
O         39.60249       57.45793       35.51680
H         42.87816       52.99490       29.03697
H         40.42189       53.81810       30.45123
H         41.64976       56.03636       29.96388
H         43.05825       55.39940       30.86541
H         39.31039       55.88882       31.29146
H         43.21497       56.13762       33.11563
H         38.30023       56.79262       33.34831
H         42.19304       57.03108       35.16670
H         40.12004       57.68997       36.30110
N         41.55477       52.99826       32.79370
C         41.87450       52.03976       33.83682
C         41.14668       50.73415       33.54118
O         41.78796       49.69535       33.48822
C         41.62517       52.64792       35.25979
C         42.11327       51.72895       36.40967
C         40.16449       53.05494       35.54344
C         43.60095       51.37130       36.34542
H         40.91445       53.75975       33.02835
H         42.97029       51.86627       33.79553
H         42.23037       53.58282       35.31292
H         41.51785       50.79286       36.43647
H         41.95567       52.26635       37.37139
H         40.10199       53.54074       36.54147
H         39.77903       53.80040       34.82209
H         39.49539       52.17221       35.54581
H         43.83045       50.73898       35.46435
H         44.22183       52.29221       36.31632
H         43.87656       50.78735       37.24850
N         39.81634       50.74152       33.22121
C         39.10208       49.55200       32.75578
C         38.81768       48.53327       33.85220
O         38.26668       47.48927       33.52822
C         37.78347       49.95500       32.07082
O         36.91369       50.55556       32.99052
H         39.32911       51.64943       33.19153
H         39.72240       49.06638       31.96884
H         37.30787       49.04492       31.63676
H         38.00609       50.66627       31.24408
H         36.05016       50.66968       32.51452
N         39.16118       48.74418       35.15756
C         38.92089       47.78537       36.23131
C         39.54638       46.44291       35.88877
O         38.87388       45.42079       35.91907
C         37.41869       47.67982       36.53654
H         39.64391       49.61324       35.42059
H         39.41435       48.17310       37.15041
H         37.01591       48.68244       36.79405
H         36.85514       47.28582       35.66525
H         37.25118       47.00423       37.40243
N         40.84817       46.39670       35.50013
C         41.48393       45.19151       34.98625
C         42.97911       45.26305       35.19884
O         43.57001       46.30096       34.94537
C         41.17572       45.03747       33.49855
H         41.35285       47.29313       35.41597
H         41.08134       44.28582       35.49268
H         40.08269       44.92629       33.34169
H         41.51935       45.92550       32.93824
H         41.67860       44.12806       33.10071
N         43.64884       44.18130       35.68299
C         45.07670       44.13896       35.97335
C         45.47371       45.07111       37.11352
O         46.66211       45.27651       37.32073
C         45.99905       44.21142       34.71465
C         46.21457       45.56347       33.98346
C         47.35300       45.43549       32.99225
O         48.42511       45.00104       33.38334
O         47.26176       45.81004       31.69428
H         43.11052       43.32369       35.88204
H         45.28170       43.11765       36.36958
H         45.67659       43.44179       33.97995
H         46.99836       43.89808       35.09220
H         46.50880       46.32562       34.73575
H         45.31000       45.90131       33.44526
N         44.53954       45.59602       37.96038
C         44.89946       46.42859       39.08737
H         45.39969       47.35321       38.73209
H         43.98665       46.71102       39.65533
H         45.57804       45.87327       39.77001
H         43.53991       45.38196       37.83496
Ca        45.87989       47.20117       30.53186
O         45.70990       44.07638       29.55592
H         45.38957       43.27719       29.06745
H         46.24377       43.71067       30.30507
O         44.09796       46.32935       27.89778
H         43.87243       46.40138       26.93648
H         43.26693       46.00183       28.32495
O         49.30815       47.68807       30.32624
H         49.66272       48.20674       29.56070
H         49.08065       48.37166       31.00584
O         46.28340       49.64772       32.20759
H         45.82096       48.96818       32.76006
H         47.20517       49.67520       32.56754
O         47.46213       46.08972       27.71008
H         48.25137       46.26469       27.13837
H         46.88836       45.49449       27.16501
O         43.30950       46.57193       31.40180
H         43.49324       47.24509       32.10512
H         42.78343       47.06137       30.72142

Ca 1.0



