%chk=apoCaM-CA-Ng.loop1.water5.frame550.chk
%nprocshared=20
%mem=10GB
%nosave
#b3lyp/svp scf=(tight,noincore,xqc) Test 
#IOP(5/87=12) Density=Current Pop=(MK,readradii) iop(6/33=2) iop(6/42=6)

apoCaM-CA-Ng.loop1.water5.frame550 

   0  1 
C         67.26597       40.17405       48.49861
C         65.80647       39.85264       48.61333
O         65.13568       40.42769       49.45835
H         67.86750       39.25598       48.66235
H         67.47686       40.57560       47.48524
H         67.56165       40.93624       49.25139
N         65.24063       38.94230       47.76729
C         63.82828       38.56414       47.78566
C         62.89012       39.71559       47.41542
O         61.69086       39.49638       47.45961
C         63.44616       37.90888       49.13499
C         64.28354       36.68812       49.40794
O         65.05230       36.62748       50.51167
O         64.26214       35.74190       48.63605
H         65.84574       38.48191       47.06988
H         63.66385       37.78849       47.00369
H         62.38248       37.58751       49.10648
H         63.55407       38.62917       49.97105
N         63.35951       40.91707       46.94989
C         62.56516       42.05745       46.48428
C         61.89653       42.88022       47.57818
O         62.21514       44.05774       47.67925
C         61.50100       41.69766       45.42198
C         62.07273       41.09747       44.12971
C         60.99053       40.99903       43.03097
C         59.84370       40.00820       43.31354
N         60.29633       38.61760       43.26876
H         64.37447       41.02935       46.82688
H         63.27989       42.75760       45.99053
H         60.99208       42.64868       45.14508
H         60.73126       41.02953       45.85239
H         62.55201       40.11530       44.32244
H         62.85554       41.79003       43.75111
H         61.46675       40.71832       42.06752
H         60.55028       42.01194       42.89678
H         59.06964       40.14600       42.52632
H         59.35391       40.22350       44.28646
H         61.01994       38.43456       43.99853
H         59.47895       37.98861       43.44102
H         60.68369       38.40412       42.32036
N         60.88310       42.38329       48.34172
C         59.99437       43.22331       49.13683
C         60.11093       42.85867       50.61387
O         59.93093       41.68654       50.91415
C         58.56589       42.99173       48.59204
C         57.50620       43.87375       49.18343
O         56.35278       43.76493       48.80122
O         57.80628       44.79227       50.11405
H         60.63907       41.38940       48.27686
H         60.22847       44.28128       48.95260
H         58.27711       41.92950       48.74994
H         58.57653       43.18713       47.49650
N         60.41203       43.74261       51.62027
C         60.61418       45.18440       51.51073
C         59.66666       45.91673       52.43638
O         59.74714       45.70472       53.63397
H         60.50540       43.35041       52.57032
H         60.48781       45.57039       50.49049
H         61.65331       45.42498       51.82028
N         58.75608       46.81377       51.95682
C         57.83477       47.56616       52.81158
C         56.85094       46.69852       53.65754
O         56.91531       45.32708       53.41207
C         57.04806       48.64262       52.00768
C         56.49870       48.29343       50.62259
O         55.65423       47.26670       50.37487
O         56.82087       49.00314       49.68251
H         58.74618       46.99402       50.94276
H         58.44648       48.13126       53.55106
H         57.74979       49.49123       51.84541
H         56.22847       49.03840       52.64629
N         56.87462       47.04341       55.09179
C         55.91285       46.27405       55.89869
C         56.47323       44.95898       56.40174
O         55.75029       44.26009       57.09780
H         56.58557       48.04794       55.14834
H         54.97086       46.10395       55.33017
H         55.65079       46.86667       56.80306
N         57.73483       44.54486       56.08619
C         58.29180       43.26252       56.49625
C         58.41520       42.35590       55.29059
O         58.52250       42.85384       54.17954
C         59.66699       43.44093       57.19978
C         60.75391       44.04732       56.28571
O         59.50187       44.25305       58.33309
H         58.31472       45.13796       55.48704
H         57.60031       42.76287       57.20926
H         60.00978       42.42977       57.51904
H         60.35314       44.21450       58.84394
H         61.72420       44.08915       56.82386
H         60.90519       43.43274       55.37387
H         60.49939       45.08352       55.98908
N         58.42263       41.00209       55.44389
C         58.63380       40.07927       54.33091
C         57.45248       39.15468       54.06450
O         57.53667       38.42858       53.08320
C         59.94779       39.26989       54.54069
C         59.93277       38.47302       55.87419
C         61.15675       40.21901       54.45409
C         61.11611       37.51941       56.03149
H         58.30210       40.61984       56.39329
H         58.74708       40.64749       53.38107
H         60.03884       38.55079       53.69624
H         59.00841       37.85823       55.92233
H         59.93586       39.16702       56.74159
H         61.14050       40.95943       55.28047
H         62.11223       39.66013       54.49022
H         61.14077       40.76493       53.48607
H         61.12429       36.78113       55.20266
H         62.08007       38.06569       56.05320
H         61.01877       36.97327       56.99371
N         56.32461       39.11865       54.83861
C         55.18364       38.25987       54.50492
C         54.98769       37.18889       55.56223
O         55.62272       37.23986       56.60669
C         53.90856       39.12369       54.31570
C         54.11168       40.17542       53.22250
O         52.81744       38.31460       53.95943
H         56.25439       39.71433       55.67645
H         55.37687       37.71518       53.55558
H         53.69338       39.63910       55.28193
H         51.99305       38.82512       54.17381
H         54.34950       39.68701       52.25344
H         53.18497       40.77439       53.10076
H         54.93539       40.86464       53.49725
N         54.13887       36.14807       55.31637
C         53.88756       35.06612       56.25363
C         54.37368       33.75093       55.66266
O         55.24667       33.13734       56.26156
C         52.38180       35.05152       56.63593
C         52.03037       33.92750       57.61422
O         51.57360       34.93085       55.49115
H         53.65745       36.10422       54.40673
H         54.45396       35.23260       57.19786
H         52.17364       36.02354       57.14629
H         50.85484       35.61296       55.55336
H         52.63683       34.01403       58.53966
H         50.95519       33.99318       57.88672
H         52.20951       32.93341       57.15249
N         53.82586       33.23194       54.52467
C         54.15503       31.90684       54.01372
C         54.44761       31.96421       52.52393
O         53.67073       32.56341       51.79168
C         52.95761       30.98475       54.29695
C         53.31849       29.50108       54.13407
C         52.11831       28.61689       54.48710
C         52.50172       27.13258       54.49459
N         51.34016       26.29990       54.80464
H         53.07028       33.74701       54.05181
H         55.02250       31.47854       54.56356
H         52.08925       31.26799       53.66185
H         52.66482       31.12351       55.36177
H         54.15413       29.26865       54.83238
H         53.65237       29.28516       53.09622
H         51.30738       28.79761       53.74842
H         51.74476       28.88351       55.50070
H         53.28944       26.96228       55.26344
H         52.91032       26.84093       53.50227
H         51.63393       25.29706       54.83260
H         50.94442       26.56266       55.73682
H         50.60943       26.41937       54.06594
N         55.51051       31.29923       51.98975
C         55.78753       31.29810       50.55637
C         56.25910       32.67033       50.08274
O         55.60576       33.21149       49.20198
C         56.75356       30.15940       50.15455
C         56.08364       28.78341       50.32764
C         56.99667       27.66655       49.91212
O         57.42026       27.60816       48.76843
O         57.33274       26.70785       50.79594
H         56.10264       30.73096       52.61495
H         54.84427       31.06726       50.00758
H         57.68810       30.18646       50.74329
H         57.00982       30.27528       49.07761
H         55.16770       28.73487       49.69786
H         55.78629       28.63552       51.38743
N         57.34314       33.33652       50.58010
C         58.19366       32.86958       51.65291
H         58.97076       33.63364       51.86799
H         57.60268       32.71929       52.57868
H         58.72356       31.94456       51.36744
H         57.56543       34.26224       50.18087
Ca        55.50275       45.50335       51.71659
O         53.94201       43.48981       53.64363
H         54.67361       44.00616       54.06280
H         53.55878       42.96146       54.38752
O         53.53869       45.06729       48.89843
H         53.09676       45.77002       48.35920
H         52.79287       44.51311       49.23991
O         53.73992       42.43672       50.73737
H         52.78427       42.18342       50.78932
H         54.14695       41.75563       50.14522
O         52.52181       45.95181       52.01435
H         52.83513       46.64839       52.64465
H         52.26952       46.45147       51.19768
O         56.49296       42.38212       51.89242
H         57.40612       42.76067       51.88421
H         56.62820       41.41159       51.75402

Ca 1.0



