%chk=apoCaM-CA-Ng.loop4.water7.frame1054.chk
%nprocshared=20
%mem=10GB
%nosave
#b3lyp/svp scf=(tight,noincore,xqc) Test 
#IOP(5/87=12) Density=Current Pop=(MK,readradii) iop(6/33=2) iop(6/42=6)

apoCaM-CA-Ng.loop4.water7.frame1054 

   -3  1 
C         22.55704       86.13674       68.76541
C         23.96497       86.51148       68.39491
O         24.83829       85.66168       68.47924
H         21.89057       86.27845       67.88828
H         22.50423       85.07046       69.05917
H         22.20213       86.75919       69.61293
N         24.29144       87.74676       67.92456
C         23.33998       88.83216       67.72579
C         22.99170       88.98307       66.25325
O         22.15226       89.81924       65.94642
C         23.92557       90.15383       68.27192
C         24.25667       90.12287       69.74166
O         24.03149       89.02552       70.49044
O         24.73938       91.11381       70.26589
H         25.26498       87.90376       67.63032
H         22.38409       88.62498       68.24878
H         23.19747       90.97717       68.10423
H         24.85509       90.39492       67.71060
N         23.57231       88.21094       65.28110
C         23.21936       88.33573       63.86587
C         23.51913       89.72873       63.31502
O         23.01405       90.04585       62.24732
C         23.90509       87.24255       62.98522
C         25.44973       87.40740       62.97448
C         23.47255       85.83385       63.44265
C         26.18080       86.42188       62.06364
H         24.26450       87.50353       65.55299
H         22.11792       88.18587       63.79911
H         23.53741       87.37269       61.94292
H         25.85037       87.29354       63.99666
H         25.70594       88.42775       62.61757
H         23.85353       85.05567       62.75156
H         23.83973       85.59782       64.46284
H         22.36497       85.75562       63.43889
H         26.05111       85.37759       62.41264
H         25.81564       86.51677       61.01971
H         27.26870       86.64643       62.08313
N         24.31215       90.61141       63.99418
C         24.55800       91.98923       63.56378
C         25.30523       92.76760       64.65388
O         25.80505       92.16807       65.59797
C         25.35140       92.00241       62.23019
C         25.48120       93.37180       61.62734
O         24.37788       94.05727       61.27014
O         26.58332       93.85920       61.43427
H         24.72659       90.29114       64.87700
H         23.56167       92.46797       63.43430
H         24.84537       91.38217       61.46543
H         26.35724       91.56002       62.40648
N         25.39336       94.12747       64.61575
C         26.07571       94.87695       65.65947
C         27.58119       94.66577       65.67108
O         28.22039       95.16659       66.58466
H         24.92114       94.65248       63.86573
H         25.64274       94.58633       66.64175
H         25.89248       95.96447       65.51960
N         28.22481       94.00290       64.66468
C         29.67516       93.86225       64.57148
C         30.05141       92.40523       64.32215
O         29.42262       91.78976       63.47420
C         30.17775       94.70829       63.38984
C         29.88413       96.16779       63.60271
O         29.18191       96.77557       62.81106
O         30.39688       96.81223       64.66905
H         27.67789       93.64725       63.86919
H         30.17629       94.24819       65.48331
H         29.70053       94.36003       62.44666
H         31.27818       94.58913       63.28942
N         31.12076       91.79134       64.91272
C         32.04796       92.48499       65.78962
C         33.33344       91.69579       65.99087
O         33.88852       91.27813       64.98447
H         31.32779       90.81676       64.64059
H         31.51923       92.74950       66.71817
H         32.36931       93.41667       65.27726
N         33.94121       91.47238       67.19877
C         33.50424       91.94267       68.51001
C         32.19294       91.27013       68.85223
O         31.19009       91.92756       69.09294
C         33.51716       93.49690       68.59296
C         34.88465       94.09546       68.20103
C         35.96850       93.79861       69.20281
N         35.91685       94.33542       70.44420
O         36.91733       93.09846       68.88263
H         34.81957       90.92943       67.18731
H         34.23799       91.58576       69.26780
H         33.23363       93.82892       69.61475
H         32.77744       93.93706       67.90582
H         34.80112       95.19963       68.11690
H         35.17295       93.71440       67.19700
H         35.14046       94.95646       70.71589
H         36.66861       94.15592       71.12590
N         32.15817       89.90760       68.85342
C         30.95531       89.10513       69.03149
C         30.72244       88.27414       67.76690
O         31.50172       88.36761       66.82747
C         31.05756       88.23679       70.32556
C         31.11886       89.12499       71.57636
C         32.25417       87.27537       70.32509
H         33.03927       89.40295       68.66897
H         30.06226       89.75840       69.14568
H         30.13396       87.62554       70.41310
H         31.12486       88.49652       72.49331
H         32.03457       89.75369       71.57349
H         30.22835       89.78712       71.62136
H         33.21999       87.82092       70.31764
H         32.22891       86.63156       71.23091
H         32.21221       86.62162       69.44067
N         29.64847       87.44305       67.67590
C         29.32429       86.63795       66.49849
C         29.41890       85.15430       66.81994
O         28.88740       84.34635       66.06930
C         27.88275       86.97156       66.07157
C         27.71681       88.41432       65.67765
N         28.35886       88.91163       64.59937
O         26.97364       89.13799       66.32127
H         29.01469       87.36561       68.48556
H         30.00686       86.83740       65.64351
H         27.19988       86.72906       66.91484
H         27.58810       86.34347       65.20389
H         28.97941       88.32053       64.02797
H         28.20912       89.89030       64.32633
N         30.11005       84.71887       67.90776
C         30.10764       83.34166       68.37211
C         29.74397       83.31965       69.84786
O         29.63818       84.37150       70.46650
C         31.44907       82.62428       68.08688
C         32.67783       83.31585       68.62803
C         33.38652       82.76715       69.70926
C         33.15103       84.49664       68.02909
C         34.53396       83.40178       70.19619
C         34.30093       85.12517       68.51248
C         34.99389       84.58216       69.60227
O         36.10131       85.18228       70.08266
H         30.63912       85.39863       68.46581
H         29.32105       82.76415       67.83692
H         31.58517       82.50194       66.99016
H         31.37598       81.59689       68.50430
H         33.04830       81.85271       70.18060
H         32.63745       84.92924       67.17970
H         35.06742       82.97378       71.03522
H         34.64937       86.03477       68.03922
H         36.44943       86.00023       69.69945
N         29.48433       82.13849       70.46633
C         29.06573       82.04039       71.85469
C         27.62317       81.59685       71.83941
O         27.32738       80.42665       72.04196
C         30.02471       81.10593       72.61410
C         29.72840       81.09242       74.12217
C         30.72341       80.24677       74.86148
O         31.91193       80.52535       74.83005
O         30.30695       79.18779       75.58094
H         29.52689       81.26752       69.91405
H         29.11252       83.02734       72.36728
H         31.05807       81.49280       72.46863
H         29.97683       80.07618       72.19580
H         28.70467       80.70254       74.30496
H         29.78534       82.12834       74.52291
N         26.66333       82.51357       71.53153
C         25.27403       82.15675       71.30449
C         25.19494       81.42707       69.97767
O         24.73530       80.29495       69.93950
C         24.39014       83.42703       71.29317
C         22.88698       83.12769       71.16453
C         22.37499       82.33933       72.33419
O         22.47732       82.84352       73.57903
O         21.86086       81.24578       72.16339
H         26.94348       83.50145       71.42250
H         24.92085       81.51975       72.14573
H         24.69635       84.09192       70.46196
H         24.55249       83.98876       72.23933
H         22.68836       82.58796       70.21275
H         22.32940       84.08703       71.14236
N         25.66987       82.02975       68.84730
C         25.67937       81.41066       67.53892
H         26.72815       81.33887       67.17886
H         25.23883       80.39270       67.54880
H         25.10421       82.04245       66.82995
H         26.07048       82.97788       68.91303
Ca        20.70496       81.01467       75.08207
O         20.54082       83.46416       76.85244
H         20.58717       84.43047       76.64212
H         19.82416       83.38994       77.53159
O         23.43155       81.12031       76.56564
H         24.23947       81.18689       75.99702
H         23.53390       81.84634       77.23099
O         22.44138       78.53950       74.64996
H         21.82162       77.80196       74.87885
H         23.22093       78.40349       75.24504
O         19.10911       79.39620       73.11274
H         18.74644       78.69680       73.71256
H         19.73808       78.91396       72.51931
O         17.79119       81.08152       76.07474
H         17.34930       80.93832       75.20039
H         17.77627       80.19144       76.50807
O         19.03816       83.26180       73.71010
H         19.45589       83.45097       72.83261
H         18.19957       82.78465       73.48785
O         20.36832       79.64874       77.68433
H         20.27327       80.04475       78.58656
H         20.90931       78.83144       77.82329

Ca 1.0



