%chk=apoCaM-CA-Ng.loop4.water6.frame892.chk
%nprocshared=20
%mem=10GB
%nosave
#b3lyp/svp scf=(tight,noincore,xqc) Test 
#IOP(5/87=12) Density=Current Pop=(MK,readradii) iop(6/33=2) iop(6/42=6)

apoCaM-CA-Ng.loop4.water6.frame892 

   -3  1 
C         21.37662       -4.15987       -3.80141
C         21.29122       -4.72515       -5.18697
O         20.20506       -5.06849       -5.63046
H         21.78472       -3.12776       -3.84935
H         20.37465       -4.12603       -3.32423
H         22.05014       -4.78648       -3.18188
N         22.42091       -4.82655       -5.94091
C         22.46181       -5.31758       -7.31286
C         21.59051       -4.43852       -8.20348
O         20.73730       -4.93543       -8.91939
C         22.11601       -6.82708       -7.34986
C         22.32866       -7.44586       -8.70278
O         23.43383       -7.42753       -9.22091
O         21.30780       -8.05537       -9.33468
H         23.31145       -4.50749       -5.52809
H         23.51168       -5.20844       -7.66692
H         21.06623       -6.99319       -7.02782
H         22.77997       -7.35871       -6.63610
N         21.74521       -3.08690       -8.15934
C         20.96131       -2.13951       -8.95211
C         21.50370       -2.13925      -10.38051
O         22.71249       -2.00997      -10.51683
C         21.04164       -0.71883       -8.30277
C         20.44816       -0.77216       -6.86139
C         20.28305        0.32161       -9.15265
C         20.53509        0.54665       -6.09264
H         22.44532       -2.71156       -7.50106
H         19.89181       -2.40815       -8.90678
H         22.10896       -0.40893       -8.25095
H         20.99411       -1.52419       -6.25502
H         19.38180       -1.08743       -6.90399
H         20.40059        1.34147       -8.73700
H         20.68580        0.36332      -10.18532
H         19.20005        0.07915       -9.19252
H         19.92539        1.33875       -6.57119
H         20.13473        0.39771       -5.06716
H         21.59134        0.87913       -6.01791
N         20.73274       -2.21751      -11.51089
C         19.27276       -2.22879      -11.55675
C         18.67738       -3.47624      -10.93621
O         17.89797       -3.32191      -10.00485
C         18.75021       -1.90605      -12.98262
C         19.18319       -2.82037      -14.09901
O         19.89258       -2.38755      -14.99411
O         18.72727       -4.08309      -14.17570
H         21.23463       -2.16831      -12.41172
H         18.90606       -1.36544      -10.96305
H         19.12287       -0.88438      -13.22477
H         17.64013       -1.85159      -12.97467
N         18.99484       -4.73510      -11.35480
C         18.47421       -5.91368      -10.68072
C         17.57427       -6.72455      -11.56358
O         16.60705       -6.19243      -12.09042
H         19.65596       -4.87081      -12.13211
H         17.86950       -5.64208       -9.79216
H         19.32358       -6.52490      -10.31282
N         17.79505       -8.05974      -11.69641
C         16.92616       -8.94819      -12.45722
C         15.47823       -8.97063      -11.97665
O         14.66352       -9.51418      -12.70771
C         17.50141      -10.39346      -12.47943
C         17.64521      -11.05116      -11.12073
O         18.34725      -10.56000      -10.25169
O         17.04727      -12.23080      -10.87944
H         18.63093       -8.44824      -11.24023
H         16.91059       -8.56957      -13.50313
H         18.50662      -10.36614      -12.94754
H         16.85100      -11.03569      -13.11434
N         15.05798       -8.43518      -10.78804
C         13.66777       -8.54362      -10.35966
C         13.24832       -9.98687      -10.11450
O         12.06285      -10.23028       -9.94192
H         15.72098       -7.96051      -10.15965
H         13.02436       -8.09119      -11.14578
H         13.50348       -7.97317       -9.41891
N         14.17602      -10.98967      -10.04645
C         13.88584      -12.40124       -9.82950
C         13.27805      -12.67952       -8.46547
O         12.84476      -13.80108       -8.24077
C         13.14829      -13.03876      -11.03538
C         14.00910      -12.88221      -12.30968
C         13.54752      -13.65664      -13.51422
N         14.26412      -13.57952      -14.66168
O         12.55365      -14.36542      -13.46417
H         15.16872      -10.75138      -10.12498
H         14.85152      -12.94825       -9.78362
H         12.13787      -12.60288      -11.18944
H         13.03580      -14.12606      -10.83056
H         15.03904      -13.23572      -12.09699
H         14.04883      -11.81484      -12.58405
H         15.10821      -12.98807      -14.71410
H         13.98463      -14.11287      -15.49780
N         13.33856      -11.74982       -7.46263
C         12.92208      -12.02060       -6.08951
C         14.07411      -11.87926       -5.08857
O         13.88080      -12.29094       -3.95223
C         11.74188      -11.09575       -5.68023
C         12.12551       -9.60321       -5.70885
C         10.51896      -11.33569       -6.57576
H         13.72652      -10.82152       -7.66571
H         12.57360      -13.07415       -6.00862
H         11.44641      -11.35143       -4.63824
H         11.27418       -8.98349       -5.35801
H         12.98667       -9.40455       -5.03757
H         12.38911       -9.26937       -6.73417
H         10.20559      -12.39956       -6.51946
H          9.66885      -10.70542       -6.23789
H         10.74378      -11.08429       -7.63374
N         15.25596      -11.25354       -5.39289
C         16.31773      -11.01813       -4.41180
C         17.66771      -11.48843       -4.96189
O         17.72061      -11.89435       -6.11663
C         16.27098       -9.51840       -4.04960
C         17.13604       -9.11940       -2.88434
N         18.03632       -8.11793       -3.00546
O         16.99407       -9.67846       -1.80668
H         15.39101      -10.83962       -6.32462
H         16.10592      -11.59910       -3.48701
H         15.22682       -9.28245       -3.74681
H         16.50467       -8.91019       -4.95036
H         18.15329       -7.61783       -3.89899
H         18.61500       -7.83466       -2.20112
N         18.78832      -11.54468       -4.17629
C         20.03003      -12.16592       -4.65832
C         20.93998      -12.62516       -3.52984
O         20.65400      -12.35067       -2.37114
C         20.80212      -11.26423       -5.66227
C         21.66757      -10.18675       -5.02564
C         21.11182       -9.14362       -4.27278
C         23.06623      -10.22788       -5.19361
C         21.93151       -8.16125       -3.69921
C         23.88416       -9.24923       -4.62295
C         23.32235       -8.21204       -3.87518
O         24.12811       -7.27541       -3.33451
H         18.69799      -11.27416       -3.18680
H         19.72871      -13.09865       -5.18560
H         20.10653      -10.81583       -6.40181
H         21.47450      -11.93432       -6.23905
H         20.04748       -9.09483       -4.13583
H         23.53062      -11.02014       -5.76685
H         21.48674       -7.36140       -3.12082
H         24.95732       -9.29823       -4.76277
H         23.78874       -6.53977       -2.80623
N         22.06901      -13.34361       -3.80893
C         22.99004      -13.79167       -2.77676
C         24.36513      -13.17996       -3.01290
O         25.07900      -13.68793       -3.86742
C         23.10221      -15.33073       -2.75132
C         21.77791      -16.01841       -2.40284
C         21.95832      -17.51000       -2.36758
O         22.82951      -18.06622       -1.50309
O         21.31588      -18.22549       -3.11921
H         22.29106      -13.57464       -4.78915
H         22.60729      -13.50267       -1.79147
H         23.85802      -15.61472       -1.98463
H         23.45270      -15.69682       -3.74263
H         21.00711      -15.75198       -3.15836
H         21.42990      -15.67846       -1.40380
N         24.83717      -12.07969       -2.35143
C         24.05569      -11.22712       -1.45469
C         23.55217      -11.92385       -0.20581
O         24.03744      -12.99235        0.14166
C         24.86926       -9.97201       -1.05777
C         26.10656      -10.30708       -0.19935
C         26.91095       -9.07501        0.07895
O         27.45201       -8.38599       -0.94287
O         27.09382       -8.70214        1.22666
H         25.78882      -11.77083       -2.60420
H         23.17001      -10.89304       -2.03996
H         24.22090       -9.26548       -0.49425
H         25.19658       -9.46148       -1.98884
H         26.76869      -11.02784       -0.72161
H         25.78360      -10.76662        0.76000
N         22.52251      -11.36467        0.49050
C         21.91991      -11.96561        1.66108
H         20.85114      -12.18264        1.44826
H         22.41776      -12.91276        1.95443
H         21.97770      -11.25329        2.50957
H         22.11488      -10.47850        0.15417
Ca        28.67604       -6.53464       -0.54966
O         29.57419       -4.98249        1.90664
H         30.31791       -4.49112        1.47570
H         28.75574       -4.55118        1.55329
O         29.10493       -4.29886       -2.54686
H         29.82458       -3.61937       -2.55576
H         29.22693       -4.80011       -3.39178
O         31.75609       -6.24424       -0.29527
H         32.39294       -6.10280        0.44945
H         32.24058       -5.93517       -1.10131
O         30.28124       -8.78031        1.03246
H         31.13248       -8.53727        1.47581
H         30.48478       -9.61626        0.54248
O         30.42832       -7.78773       -2.77911
H         31.11115       -7.32892       -3.33002
H         30.41646       -8.71772       -3.11828
O         27.54788       -6.95488       -3.64783
H         27.18838       -7.83956       -3.90855
H         26.78294       -6.48719       -3.22787

Ca 1.0



