%chk=apoCaM-CA-Ng.loop3.water5.frame387.chk
%nprocshared=20
%mem=10GB
%nosave
#b3lyp/svp scf=(tight,noincore,xqc) Test 
#IOP(5/87=12) Density=Current Pop=(MK,readradii) iop(6/33=2) iop(6/42=6)

apoCaM-CA-Ng.loop3.water5.frame387 

   0  1 
C         18.57019      117.41950       12.40126
C         19.32538      118.09413       11.29248
O         20.51325      118.33312       11.45275
H         17.50975      117.24237       12.12241
H         19.04009      116.43839       12.62544
H         18.59709      118.05218       13.31253
N         18.69484      118.42880       10.12952
C         19.35315      119.04653        8.98448
C         19.91602      120.41540        9.35411
O         21.12091      120.62340        9.29881
C         20.39488      118.07762        8.37259
C         20.93575      118.54156        7.04106
O         20.52360      119.69602        6.47903
O         21.74620      117.84771        6.44895
H         17.68818      118.22229       10.03709
H         18.58226      119.20266        8.19556
H         19.90051      117.09666        8.19773
H         21.24050      117.91984        9.07367
N         19.06107      121.42159        9.69210
C         19.49592      122.79754        9.93751
C         20.19482      123.02444       11.28135
O         20.52856      124.16953       11.55636
C         18.32637      123.79361        9.75666
C         17.14854      123.62934       10.73014
C         16.18307      124.81035       10.56216
C         14.94576      124.67023       11.45344
N         14.10762      125.86591       11.36057
H         18.05317      121.21255        9.65166
H         20.21586      123.08056        9.13688
H         17.93896      123.71240        8.71657
H         18.74477      124.81870        9.86850
H         17.51442      123.61946       11.77919
H         16.61689      122.67587       10.52725
H         15.85332      124.88788        9.50231
H         16.72440      125.74358       10.83431
H         15.25615      124.52743       12.51178
H         14.36245      123.77841       11.13189
H         14.63576      126.69655       11.71594
H         13.81799      126.03339       10.36955
H         13.25355      125.73468       11.94857
N         20.47995      122.01491       12.15543
C         21.15059      122.23239       13.44195
C         22.45632      123.00328       13.24659
O         23.23025      122.65299       12.36786
C         21.37163      120.87924       14.14606
C         21.87089      121.04761       15.55301
O         21.12906      120.61552       16.59075
O         22.95563      121.55578       15.76445
H         20.22455      121.05158       11.89988
H         20.47189      122.83049       14.09075
H         22.07691      120.24735       13.56286
H         20.39540      120.34866       14.19949
N         22.71496      124.12007       13.99155
C         23.80105      125.04972       13.70695
C         25.21710      124.51623       13.79966
O         26.10516      125.24671       13.38117
H         22.05241      124.38480       14.73582
H         23.72639      125.92820       14.38525
H         23.64963      125.41615       12.66961
N         25.53350      123.29960       14.32672
C         26.89652      122.76971       14.32431
C         27.00289      121.42643       13.60652
O         28.11824      120.93826       13.49387
C         27.46813      122.65682       15.75089
C         26.61330      121.77270       16.66454
N         27.43300      121.15966       17.69599
O         25.63399      122.57521       17.26037
H         24.78942      122.73181       14.74649
H         27.57812      123.45577       13.77596
H         27.58838      123.66112       16.21551
H         28.49350      122.23442       15.66028
H         28.13048      120.54876       17.21456
H         26.81184      120.50854       18.22005
N         25.91719      120.76183       13.10527
C         26.02767      119.48010       12.42422
C         25.38778      118.35086       13.20153
O         25.52780      117.21744       12.75999
H         24.97538      121.15170       13.20890
H         27.09272      119.19976       12.28415
H         25.57319      119.55740       11.41314
N         24.69190      118.55424       14.35973
C         24.17832      117.46796       15.18245
C         24.68445      117.64199       16.59876
O         24.36100      118.63673       17.23184
C         22.64131      117.45531       15.17682
C         22.10222      116.37152       16.08260
C         22.35309      115.01589       15.80957
C         21.36379      116.71541       17.22715
C         21.87378      114.02290       16.66928
C         20.88981      115.72215       18.08698
C         21.14311      114.37128       17.81039
O         20.69472      113.40312       18.63411
H         24.52738      119.51365       14.69777
H         24.52261      116.48900       14.78418
H         22.26129      117.30505       14.14361
H         22.28516      118.44183       15.52551
H         22.92286      114.72716       14.93549
H         21.16532      117.75347       17.46227
H         22.07677      112.98204       16.45163
H         20.33006      116.00491       18.96940
H         20.19392      113.60378       19.43765
N         25.48890      116.70573       17.15843
C         26.01000      116.80013       18.51356
C         27.39088      117.40774       18.44402
O         27.64219      118.34415       19.18706
C         25.95347      115.41017       19.21039
C         24.47296      114.95373       19.31471
C         26.59395      115.46143       20.61477
C         24.29512      113.51407       19.79670
H         25.79205      115.90786       16.57804
H         25.39020      117.49074       19.13292
H         26.52503      114.68667       18.58736
H         23.99851      115.00921       18.31508
H         23.91683      115.63997       19.99248
H         27.64600      115.79414       20.56665
H         26.04438      116.16477       21.27532
H         26.60962      114.45867       21.08622
H         24.69669      113.36397       20.81777
H         23.21238      113.27088       19.82554
H         24.79440      112.81556       19.09276
N         28.31768      116.99234       17.53107
C         29.62613      117.63226       17.43886
C         30.46443      117.34242       18.67017
O         31.40601      118.08004       18.92273
C         30.36338      117.21607       16.16219
O         29.58612      117.56285       15.04735
H         28.07116      116.24692       16.86362
H         29.46287      118.72892       17.37488
H         30.53547      116.11641       16.18376
H         31.33748      117.75117       16.10629
H         30.00900      117.12672       14.26336
N         30.16117      116.28979       19.49003
C         30.83766      115.94939       20.73575
C         30.60532      116.95635       21.86155
O         31.08496      116.69771       22.95713
C         32.33372      115.69664       20.49548
H         29.40791      115.64877       19.20644
H         30.40040      114.99014       21.09376
H         32.46300      114.93174       19.70012
H         32.86616      116.62018       20.19181
H         32.81343      115.31877       21.42242
N         29.89395      118.11322       21.69533
C         29.72711      119.08545       22.76988
C         28.82314      118.58056       23.87701
O         28.05411      117.65097       23.67139
C         29.13981      120.39408       22.23064
H         29.50926      118.34903       20.77605
H         30.73645      119.30866       23.18104
H         29.78873      120.80230       21.42779
H         28.12750      120.21277       21.81513
H         29.06065      121.15261       23.03839
N         28.87755      119.18733       25.09851
C         28.02852      118.87779       26.24568
C         28.14692      117.43505       26.73598
O         27.40918      117.07377       27.64367
C         26.54903      119.24588       25.97563
C         26.39083      120.65298       25.37434
C         24.95626      121.09498       25.40025
O         24.33406      121.27932       26.58123
O         24.35716      121.31924       24.36098
H         29.56379      119.94669       25.22846
H         28.35071      119.53725       27.08378
H         26.02320      119.20514       26.95721
H         26.06386      118.51368       25.29496
H         26.76478      120.63498       24.32658
H         26.98335      121.39646       25.94805
N         29.04023      116.54963       26.20642
C         29.08687      115.16520       26.62137
H         28.11845      114.67337       26.38569
H         29.89209      114.63360       26.07048
H         29.28723      115.09424       27.71050
H         29.71366      116.84320       25.48798
Ca        24.11967      121.21944       18.28534
O         21.40945      122.26447       19.55044
H         20.63236      122.78355       19.22319
H         21.11248      121.88962       20.41728
O         25.43596      119.98406       20.53528
H         25.16260      120.10761       21.47743
H         26.27869      120.49470       20.45487
O         24.50196      123.37329       20.37002
H         24.36655      123.31597       21.34888
H         25.48408      123.33321       20.25012
O         23.11250      124.07072       17.67824
H         23.73265      124.69059       17.21864
H         22.23426      124.23052       17.25118
O         22.51459      119.10316       19.77463
H         22.79688      119.15251       20.72214
H         21.54625      118.90284       19.81469

Ca 1.0



