%chk=apoCaM-CA-Ng.loop4.water5.frame745.chk
%nprocshared=20
%mem=10GB
%nosave
#b3lyp/svp scf=(tight,noincore,xqc) Test 
#IOP(5/87=12) Density=Current Pop=(MK,readradii) iop(6/33=2) iop(6/42=6)

apoCaM-CA-Ng.loop4.water5.frame745 

   -3  1 
C        108.91777       14.73815        0.04373
C        110.22613       14.00572        0.05559
O        110.57632       13.38213       -0.93485
H        108.26693       14.35315        0.85494
H        109.09935       15.82148        0.21047
H        108.39727       14.60825       -0.92830
N        111.02581       14.08001        1.15452
C        112.33473       13.44488        1.28233
C        113.23407       13.85730        0.13306
O        113.85398       13.01094       -0.49922
C        112.22312       11.90706        1.40875
C        111.37213       11.46287        2.56641
O        110.73080       12.35802        3.34277
O        111.24667       10.27105        2.79342
H        110.70952       14.66591        1.94326
H        112.79790       13.82286        2.22147
H        113.24283       11.48797        1.55534
H        111.79811       11.47619        0.47639
N        113.30375       15.16754       -0.22510
C        114.09192       15.62128       -1.36714
C        115.55416       15.75763       -0.94384
O        115.79759       15.78191        0.25576
C        113.47845       16.92438       -1.97895
C        113.56478       18.13621       -1.00835
C        112.03154       16.64200       -2.43827
C        113.00345       19.43312       -1.59403
H        112.71338       15.83431        0.28994
H        114.01213       14.83909       -2.14919
H        114.04416       17.19207       -2.88886
H        114.63334       18.31591       -0.76303
H        113.02435       17.94141       -0.06081
H        111.36724       16.41772       -1.57777
H        111.60898       17.50188       -2.99530
H        112.01498       15.77449       -3.13152
H        113.51709       19.68651       -2.54468
H        111.91118       19.35138       -1.77075
H        113.15859       20.26077       -0.87023
N        116.61055       15.84449       -1.80742
C        116.56087       15.73272       -3.26349
C        116.03423       14.37483       -3.70255
O        115.13786       14.32970       -4.53386
C        117.94260       16.02362       -3.90108
C        119.02445       15.01550       -3.60591
O        119.44981       14.80455       -2.34617
O        119.54700       14.40239       -4.52308
H        117.53559       15.98039       -1.37309
H        115.91069       16.52928       -3.67056
H        118.28808       17.02635       -3.56648
H        117.80179       16.07351       -5.00400
N        116.50582       13.22507       -3.13934
C        115.99831       11.91034       -3.48719
C        116.47379       11.47964       -4.85085
O        117.67619       11.35032       -5.03394
H        117.20465       13.28356       -2.38422
H        114.88931       11.90612       -3.40463
H        116.38679       11.16254       -2.76201
N        115.58464       11.21409       -5.84955
C        115.98458       10.72017       -7.16586
C        115.70515       11.71685       -8.27627
O        116.09009       11.43434       -9.40338
C        115.33039        9.34782       -7.46586
C        113.82013        9.35208       -7.47331
O        113.12774        9.59910       -6.34481
O        113.21320        9.07047       -8.49414
H        114.58504       11.37200       -5.66158
H        117.08446       10.55897       -7.19079
H        115.66937        8.60493       -6.71346
H        115.69266        9.00066       -8.45979
N        115.07402       12.90728       -8.05789
C        114.85901       13.87488       -9.12027
C        113.91248       13.40374      -10.20690
O        113.72380       14.15903      -11.14920
H        114.76608       13.16932       -7.11132
H        115.84154       14.13441       -9.57048
H        114.42736       14.80338       -8.68583
N        113.24491       12.20829      -10.14018
C        112.28349       11.75039      -11.13951
C        111.03902       12.63307      -11.18505
O        110.18910       12.39737      -12.03230
C        112.95599       11.54262      -12.52031
C        114.07548       10.48565      -12.41774
C        114.70929       10.12132      -13.73721
N        115.67983        9.17803      -13.77091
O        114.35147       10.65819      -14.77556
H        113.38495       11.58786       -9.33454
H        111.90529       10.74884      -10.83434
H        113.36034       12.49202      -12.92962
H        112.18957       11.16458      -13.23225
H        113.64713        9.55398      -11.98826
H        114.87303       10.85437      -11.73947
H        115.98848        8.71186      -12.90443
H        116.12051        8.90635      -14.66217
N        110.82260       13.60693      -10.24872
C        109.61677       14.42077      -10.17423
C        108.86189       14.17411       -8.86768
O        107.82202       14.79598       -8.69289
C        109.97223       15.93319      -10.31466
C        110.87884       16.44766       -9.17963
C        110.62280       16.22935      -11.67214
H        111.51844       13.76629       -9.51208
H        108.92003       14.15854      -11.00097
H        109.02368       16.51385      -10.27249
H        111.04866       17.53916       -9.29090
H        110.39861       16.28480       -8.19474
H        111.86950       15.94807       -9.18390
H        109.94736       15.92011      -12.49717
H        110.81487       17.31945      -11.77262
H        111.58827       15.69252      -11.77730
N        109.31487       13.31497       -7.89847
C        108.65033       13.15128       -6.60764
C        108.17848       11.72429       -6.39593
O        108.43164       10.86046       -7.22627
C        109.60873       13.57354       -5.47517
C        110.06152       15.00398       -5.62427
N        109.16937       16.02205       -5.59203
O        111.25021       15.24588       -5.77102
H        110.17853       12.77354       -8.04465
H        107.74076       13.78824       -6.55950
H        110.49508       12.90055       -5.48535
H        109.11343       13.47323       -4.48647
H        108.16340       15.84141       -5.46305
H        109.48582       16.99760       -5.69506
N        107.40914       11.43460       -5.30828
C        106.77123       10.13445       -5.10265
C        105.54850       10.25901       -4.19904
O        105.26395       11.35308       -3.72956
C        107.76735        9.07779       -4.56047
C        108.03817        9.20556       -3.07291
C        108.72605       10.30522       -2.53382
C        107.57090        8.20083       -2.20220
C        108.93302       10.39266       -1.15105
C        107.77690        8.29646       -0.82587
C        108.45656        9.39183       -0.29516
O        108.63759        9.47594        1.03712
H        107.17628       12.22149       -4.68441
H        106.39188        9.78889       -6.09012
H        108.71488        9.07820       -5.14023
H        107.29962        8.08577       -4.73774
H        109.10133       11.09089       -3.17615
H        107.03046        7.34441       -2.58477
H        109.45904       11.23527       -0.73660
H        107.39929        7.52166       -0.17011
H        109.06298       10.23994        1.44777
N        104.77262        9.17567       -3.90628
C        103.61082        9.26934       -3.03339
C        103.82219        8.39030       -1.81155
O        103.70057        7.18017       -1.94489
C        102.34547        8.87914       -3.81926
C        101.06443        9.03424       -2.98929
C         99.86273        8.65400       -3.80441
O         99.74529        7.40387       -4.29268
O         98.98430        9.47233       -4.02389
H        105.01388        8.25574       -4.30592
H        103.46468       10.31166       -2.71637
H        102.44101        7.82894       -4.17532
H        102.27051        9.53925       -4.71209
H        100.97320       10.09048       -2.65181
H        101.10191        8.37937       -2.09318
N        104.19999        8.87420       -0.58958
C        104.57050       10.25984       -0.30633
C        103.37817       11.19771       -0.34258
O        102.40537       10.95392        0.35801
C        105.24866       10.35330        1.07676
C        105.93390       11.71780        1.27705
C        106.67487       11.80744        2.58028
O        107.29492       12.82343        2.84778
O        106.67431       10.78267        3.45529
H        104.33854        8.17810        0.16102
H        105.34319       10.55893       -1.04937
H        106.03462        9.57296        1.13424
H        104.51219       10.15290        1.88666
H        105.18248       12.53450        1.23834
H        106.66977       11.87304        0.45709
N        103.41638       12.32266       -1.11165
C        102.34069       13.28995       -1.17642
H        101.47232       13.00227       -0.54802
H        102.71527       14.27539       -0.82681
H        101.99933       13.38903       -2.22769
H        104.26051       12.52351       -1.66686
Ca       109.27564       11.70320        4.93191
O        108.94285       13.00068        7.58167
H        109.21565       12.66249        8.47102
H        108.18073       13.60480        7.76616
O        108.59936        8.64166        4.44624
H        109.24731        8.92517        3.75511
H        107.92467        8.11471        3.94982
O        107.20665       10.15893        6.67206
H        106.85503       10.77626        7.36129
H        107.77265        9.52053        7.17459
O        110.62781       10.14752        6.98463
H        110.63824        9.39849        6.33706
H        111.57964       10.29378        7.21264
O        106.30777       13.38434        5.63867
H        105.76568       12.62764        5.30208
H        105.64933       13.98930        6.06290

Ca 1.0



