%chk=apoCaM-CA-Ng.loop3.water8.frame1147.chk
%nprocshared=20
%mem=10GB
%nosave
#b3lyp/svp scf=(tight,noincore,xqc) Test 
#IOP(5/87=12) Density=Current Pop=(MK,readradii) iop(6/33=2) iop(6/42=6)

apoCaM-CA-Ng.loop3.water8.frame1147 

   0  1 
C         62.03079       71.22393       78.47844
C         61.62897       71.10774       77.03916
O         62.36218       71.55517       76.17394
H         63.01119       71.73675       78.57661
H         61.26396       71.81124       79.02736
H         62.10337       70.21186       78.92809
N         60.44132       70.53339       76.71663
C         59.93684       70.41854       75.35178
C         58.72346       71.31359       75.13429
O         58.09647       71.19967       74.09045
C         59.68239       68.93896       74.97333
C         58.68543       68.18160       75.80678
O         58.42976       67.02238       75.52317
O         58.08602       68.74205       76.86863
H         59.84925       70.20417       77.49181
H         60.69336       70.77507       74.61716
H         60.64714       68.39193       75.03387
H         59.33737       68.90728       73.91638
N         58.40578       72.30944       76.02032
C         57.34490       73.28898       75.81206
C         57.55208       74.02830       74.49915
O         56.63917       74.06149       73.68380
C         55.94512       72.62928       75.92312
C         55.67088       72.14191       77.35637
C         54.25776       71.55346       77.54480
C         53.98413       70.23334       76.79919
N         54.86054       69.15683       77.25615
H         58.98078       72.44272       76.86378
H         57.41399       74.05975       76.61183
H         55.85694       71.79749       75.19356
H         55.16805       73.38741       75.68024
H         55.74633       73.02541       78.02752
H         56.44327       71.41565       77.68182
H         53.50863       72.30821       77.22090
H         54.10099       71.36992       78.62983
H         54.09286       70.36797       75.70191
H         52.93089       69.93696       76.99860
H         54.78162       69.03062       78.29172
H         54.59675       68.26393       76.78123
H         55.84063       69.38251       77.00004
N         58.75102       74.62769       74.21635
C         58.99683       75.32451       72.95736
C         59.92424       74.48679       72.09516
O         60.97103       74.94747       71.66295
C         59.47852       76.77436       73.22280
C         59.43452       77.61373       71.96730
O         58.38252       77.71781       71.35674
O         60.51002       78.28957       71.51517
H         59.52558       74.54809       74.89362
H         58.04637       75.40022       72.38711
H         60.49201       76.77796       73.68156
H         58.77631       77.24599       73.94379
N         59.54816       73.21436       71.78650
C         60.29743       72.34679       70.89128
C         59.56633       71.01883       70.72504
O         58.36756       71.07000       70.48696
H         58.66308       72.86847       72.18449
H         61.32412       72.23726       71.28014
H         60.34626       72.83981       69.89756
N         60.14605       69.78324       70.81726
C         61.57145       69.49236       70.91239
C         61.87351       68.75496       72.20616
O         61.25823       67.72604       72.44978
C         61.99747       68.62360       69.71467
C         61.80406       69.35531       68.40920
N         60.99629       68.85597       67.44560
O         62.39079       70.41048       68.21819
H         59.51884       68.96508       70.74667
H         62.17378       70.40573       70.84250
H         61.42102       67.67162       69.71632
H         63.07590       68.37012       69.81027
H         60.49543       67.96611       67.58152
H         60.87346       69.36181       66.55587
N         62.82604       69.17762       73.08761
C         63.66958       70.33768       72.84571
C         64.68555       70.51579       73.93823
O         65.45008       69.59242       74.18213
H         62.97529       68.61953       73.94411
H         63.03728       71.24635       72.76388
H         64.22751       70.18831       71.89608
N         64.74482       71.67893       74.65141
C         65.68125       71.85485       75.75762
C         65.35494       73.09377       76.59524
O         64.58974       73.94917       76.17291
C         67.13317       71.93020       75.21350
C         68.18430       71.77125       76.28065
C         69.07384       72.81482       76.58235
C         68.29464       70.55202       76.97033
C         70.05370       72.64133       77.56605
C         69.27502       70.37990       77.94927
C         70.15772       71.42568       78.25234
O         71.10735       71.27294       79.19686
H         64.06220       72.41780       74.42958
H         65.53839       70.97200       76.42014
H         67.24795       72.89346       74.66839
H         67.32827       71.12492       74.47665
H         69.00785       73.76163       76.06147
H         67.62562       69.73111       76.74276
H         70.73157       73.45313       77.79657
H         69.34836       69.43245       78.46828
H         71.21183       70.44694       79.69079
N         65.87727       73.20765       77.84783
C         65.58582       74.31865       78.75641
C         66.14016       75.63698       78.23101
O         67.11131       75.61459       77.48403
C         66.16257       73.99226       80.17474
C         67.71855       73.93065       80.15960
C         65.65277       74.97610       81.24194
C         68.32873       73.35725       81.43584
H         66.44550       72.42049       78.18782
H         64.47707       74.38780       78.83443
H         65.76550       72.98870       80.44790
H         68.14269       74.94055       79.97159
H         68.06147       73.27073       79.34303
H         66.05347       75.99410       81.07307
H         64.54293       75.01277       81.23030
H         65.95849       74.65327       82.25696
H         67.94618       72.32887       81.60922
H         69.43233       73.30468       81.31770
H         68.10878       73.99239       82.31569
N         65.60308       76.83241       78.61981
C         66.23822       78.10735       78.29021
C         65.28915       79.29488       78.36579
O         64.13923       79.14248       78.75487
C         67.41560       78.33406       79.26107
O         66.92786       78.43136       80.57424
H         64.76588       76.82440       79.22311
H         66.59890       78.06883       77.23827
H         67.95719       79.26799       78.99688
H         68.12668       77.48289       79.19255
H         67.70409       78.65209       81.15084
N         65.73700       80.53062       77.99118
C         64.96519       81.76445       78.06170
C         64.65298       82.11063       79.50537
O         63.49126       82.23383       79.86783
C         63.72207       81.70136       77.15816
H         66.70255       80.61466       77.63720
H         65.59645       82.59279       77.66936
H         63.19782       82.68100       77.16978
H         64.02909       81.48572       76.11318
H         63.00473       80.92288       77.48667
N         65.68299       82.28951       80.38991
C         65.52248       82.66471       81.79412
C         64.79528       81.61499       82.62690
O         64.53456       81.88504       83.79219
C         64.83803       84.03794       81.90367
H         66.64793       82.17828       80.04314
H         66.53341       82.78263       82.24426
H         64.80831       84.36970       82.96373
H         65.41472       84.79229       81.32717
H         63.79673       84.01734       81.52454
N         64.44420       80.39465       82.12129
C         63.66727       79.42171       82.88209
C         64.42167       78.88625       84.10022
O         63.80541       78.21910       84.91923
C         63.23800       78.26557       81.94057
C         62.14428       77.33852       82.49584
C         60.86339       78.08791       82.74336
O         60.29868       78.66045       81.82398
O         60.33192       78.13102       83.97932
H         64.69012       80.16108       81.15182
H         62.75350       79.95588       83.22386
H         64.13619       77.66943       81.66826
H         62.83165       78.70277       81.00262
H         62.48396       76.83790       83.42353
H         61.94008       76.54277       81.74769
N         65.75218       79.12204       84.29339
C         66.45926       78.61058       85.44811
H         67.52856       78.90801       85.40146
H         66.01584       79.02349       86.37911
H         66.40072       77.50134       85.46917
H         66.29658       79.66145       83.60617
Ca        62.49976       78.52462       72.55069
O         61.40731       80.35880       74.64093
H         60.46122       80.35037       74.34914
H         61.52598       79.50273       75.12430
O         64.84828       79.17307       74.40389
H         65.16291       78.32996       74.81630
H         65.61876       79.79018       74.47866
O         62.71852       77.32346       69.68273
H         62.69283       76.34214       69.81076
H         62.81500       77.44602       68.70526
O         65.47174       78.39117       71.07448
H         66.42048       78.63471       71.21882
H         65.50566       77.49185       70.66155
O         61.06936       81.25810       71.12508
H         60.29228       81.07937       71.71197
H         60.69811       81.24095       70.20745
O         63.81407       75.96540       73.33893
H         63.18878       75.99227       72.57211
H         63.28549       76.30903       74.10280
O         63.68582       81.86228       72.74935
H         62.87763       82.31681       73.09660
H         64.32571       81.88620       73.50415
O         63.71186       80.51171       69.63127
H         63.31020       80.28836       68.75423
H         64.51126       81.05188       69.40867

Ca 1.0



