%chk=apoCaM-CA-Ng.loop2.water3.frame1249.chk
%nprocshared=20
%mem=10GB
%nosave
#b3lyp/svp scf=(tight,noincore,xqc) Test 
#IOP(5/87=12) Density=Current Pop=(MK,readradii) iop(6/33=2) iop(6/42=6)

apoCaM-CA-Ng.loop2.water3.frame1249 

   -2  1 
C         45.65576       54.69896       25.39418
C         46.13478       55.42937       24.16885
O         47.33559       55.45254       23.94172
H         44.97758       53.87228       25.09196
H         46.51204       54.25752       25.94737
H         45.12274       55.39451       26.07451
N         45.28372       56.03688       23.29182
C         43.82898       56.08710       23.44425
C         43.31512       57.52284       23.41828
O         44.09745       58.43190       23.19403
C         43.15806       55.16919       22.40416
C         43.43424       55.49837       20.96551
O         42.99352       54.75994       20.09980
O         44.16197       56.57568       20.61163
H         45.70430       56.47359       22.45839
H         43.53636       55.68149       24.43272
H         42.05832       55.16308       22.55838
H         43.53085       54.13709       22.58537
N         42.01143       57.78191       23.74497
C         41.40118       59.09960       23.95500
C         41.04263       59.87136       22.68838
O         39.86175       60.12869       22.49689
C         42.21904       59.96441       24.92552
H         41.42216       56.97148       23.98998
H         40.43102       58.90910       24.47018
H         43.19432       60.26797       24.49512
H         41.65810       60.89212       25.16813
H         42.39958       59.40778       25.86961
N         41.98264       60.32597       21.81322
C         41.67560       61.19429       20.67125
C         41.95531       60.48266       19.35483
O         42.38295       59.33532       19.36645
C         42.47578       62.51539       20.81101
C         43.94717       62.22160       20.86977
O         44.58463       62.44379       21.88701
O         44.51357       61.55501       19.84984
H         42.96587       60.08172       21.97327
H         40.59542       61.45649       20.65444
H         42.15901       63.02334       21.74934
H         42.26243       63.20435       19.96703
N         41.68917       61.10324       18.16752
C         41.82087       60.43329       16.88399
C         43.24202       60.06730       16.51675
O         44.18488       60.45802       17.18891
H         41.30188       62.05850       18.17296
H         41.41493       61.07562       16.07356
H         41.20836       59.50630       16.92353
N         43.43552       59.23490       15.45561
C         44.72971       58.68271       15.05819
C         44.86903       58.72864       13.54380
O         43.97922       59.23339       12.87266
C         44.75845       57.20641       15.50729
C         44.46552       57.09880       16.97697
N         43.32050       56.51357       17.39258
O         45.23932       57.57869       17.79253
H         42.59663       58.87005       14.97759
H         45.57165       59.22068       15.54802
H         45.73723       56.72471       15.30041
H         43.97984       56.65266       14.93722
H         42.64828       56.11942       16.71919
H         43.08252       56.48583       18.38765
N         45.91962       58.11652       12.92616
C         45.91074       57.92214       11.48382
C         47.03478       57.03397       10.98217
O         47.92100       56.68657       11.74741
H         46.66234       57.69729       13.50164
H         45.93288       58.90117       10.95848
H         44.96218       57.39383       11.24455
N         47.06232       56.57059        9.69732
C         46.05448       56.86475        8.68115
C         45.27566       55.61862        8.26783
O         44.38972       55.76166        7.43728
C         46.72949       57.50151        7.44206
C         47.39553       58.83716        7.78496
O         47.68384       56.61416        6.91489
H         47.84251       55.94799        9.43051
H         45.29783       57.58321        9.05449
H         45.93844       57.69967        6.68047
H         47.84498       56.88553        5.97371
H         46.64046       59.54857        8.18179
H         48.19804       58.69884        8.53943
H         47.84361       59.27724        6.86876
N         45.55006       54.37141        8.76739
C         44.86561       53.16208        8.29760
C         44.27240       52.34990        9.44967
O         44.62616       52.61113       10.59061
C         45.85999       52.28497        7.47191
C         47.10727       51.87499        8.30712
C         46.25617       53.02938        6.18588
C         48.06311       50.93610        7.57283
H         46.30113       54.25908        9.45948
H         44.02317       53.46724        7.64747
H         45.33848       51.35766        7.16185
H         46.77126       51.35136        9.22550
H         47.68955       52.76826        8.61480
H         45.34544       53.29934        5.61023
H         46.82082       53.95568        6.42074
H         46.87489       52.38960        5.52633
H         48.51856       51.43243        6.69324
H         48.89109       50.65262        8.25734
H         47.53074       50.01764        7.24906
N         43.37238       51.32903        9.26429
C         42.70838       50.99536        8.00504
C         43.02585       49.57662        7.55315
O         42.73497       48.62859        8.26727
C         41.18919       51.20116        8.18817
C         40.40541       50.98429        6.91936
O         40.36582       49.77036        6.33945
O         39.77565       51.90505        6.42391
H         43.07302       50.79886       10.09861
H         43.01099       51.68578        7.20002
H         41.02554       52.24843        8.52786
H         40.79650       50.52187        8.97559
N         43.55262       49.38124        6.30863
C         43.76113       48.08464        5.67215
C         45.17111       48.01685        5.07656
O         45.52655       48.94649        4.36687
C         42.73426       47.98521        4.51718
C         42.85784       46.72102        3.69961
C         43.26206       46.79469        2.35524
C         42.56820       45.46546        4.25955
C         43.38996       45.63272        1.59077
C         42.69796       44.30383        3.49081
C         43.11063       44.38761        2.15822
H         43.72950       50.21255        5.72470
H         43.56471       47.25554        6.38028
H         42.87640       48.86786        3.85455
H         41.70114       48.04353        4.91980
H         43.48707       47.75100        1.89969
H         42.24600       45.38553        5.29041
H         43.70768       45.69919        0.55834
H         42.47957       43.33812        3.92775
H         43.21229       43.48885        1.56407
N         46.00345       46.93106        5.21026
C         45.68588       45.68621        5.88659
C         46.08207       45.68461        7.35721
O         45.69313       44.75519        8.04779
C         46.50428       44.66197        5.09114
C         47.77995       45.44167        4.81464
C         47.22239       46.80861        4.42805
H         44.61928       45.41849        5.80844
H         46.64100       43.67414        5.58012
H         46.00093       44.49858        4.10900
H         48.33252       45.53877        5.77470
H         48.46325       44.99991        4.05795
H         47.95774       47.61808        4.62336
H         46.93586       46.81114        3.35168
N         46.89320       46.64499        7.89343
C         47.29011       46.66360        9.29849
C         48.77156       46.33878        9.41386
O         49.56900       47.01994        8.78537
C         47.02756       48.05523        9.90564
C         45.56556       48.51389        9.84059
C         44.64195       47.72104       10.72552
O         43.99656       48.33663       11.73481
O         44.44574       46.53371       10.52573
H         47.28105       47.37752        7.28236
H         46.70879       45.92574        9.87509
H         47.63491       48.79329        9.34355
H         47.36728       48.07917       10.96432
H         45.21654       48.48454        8.78986
H         45.53122       49.56911       10.18191
N         49.24841       45.33062       10.20194
C         48.41372       44.48398       11.02853
H         47.70279       43.90849       10.39880
H         49.04385       43.76351       11.59155
H         47.85586       45.10287       11.76471
H         50.26722       45.17017       10.23427
Ca        45.73856       59.72611       20.31533
O         47.49129       57.23154       20.37585
H         48.17966       56.80500       19.80662
H         47.99987       57.62739       21.12758
O         46.74507       59.99610       23.11435
H         47.43527       59.83020       22.42416
H         46.66952       59.13560       23.59777
O         48.13975       60.80608       19.23779
H         47.56043       61.58578       19.43260
H         47.70476       60.36135       18.46676

Ca 1.0



