%chk=apoCaM-CA-Ng.loop1.water4.frame140.chk
%nprocshared=20
%mem=10GB
%nosave
#b3lyp/svp scf=(tight,noincore,xqc) Test 
#IOP(5/87=12) Density=Current Pop=(MK,readradii) iop(6/33=2) iop(6/42=6)

apoCaM-CA-Ng.loop1.water4.frame140 

   0  1 
C         44.43684       51.81929      -25.58971
C         43.05607       52.20811      -26.02157
O         42.44123       51.49545      -26.80244
H         45.14973       52.61880      -25.88431
H         44.46277       51.70014      -24.48618
H         44.74733       50.86669      -26.06666
N         42.50458       53.35341      -25.54070
C         41.16976       53.81297      -25.90741
C         41.01343       54.14461      -27.39451
O         39.89672       54.44946      -27.77660
C         40.72914       55.01645      -25.02344
C         41.60155       56.24825      -25.09202
O         42.86282       56.22865      -24.62013
O         41.13987       57.29978      -25.50527
H         43.05344       53.88481      -24.85201
H         40.45571       52.98912      -25.68427
H         40.67636       54.69443      -23.96115
H         39.70467       55.30573      -25.32399
N         42.04021       54.13205      -28.29539
C         41.87093       54.56585      -29.68372
C         42.33603       53.50744      -30.67716
O         43.45544       53.04172      -30.50925
C         42.72050       55.82385      -29.91891
C         42.37898       56.96286      -28.94546
C         43.11559       58.26344      -29.28710
C         44.64225       58.13228      -29.17498
N         45.29595       59.40072      -29.48496
H         42.99255       53.89196      -27.98668
H         40.82576       54.84947      -29.87694
H         42.54897       56.17367      -30.96000
H         43.79081       55.55558      -29.80652
H         42.61584       56.66146      -27.90306
H         41.29623       57.17143      -28.99464
H         42.77082       59.04834      -28.57922
H         42.83863       58.57989      -30.31699
H         45.01978       57.36643      -29.88434
H         44.90917       57.81934      -28.14106
H         45.07191       59.68514      -30.46651
H         44.97925       60.14165      -28.81883
H         46.33050       59.27946      -29.39574
N         41.64422       53.11913      -31.79758
C         40.30692       53.52321      -32.23786
C         40.13652       55.03581      -32.30454
O         39.26290       55.55261      -31.62545
C         39.23398       52.82649      -31.37147
C         39.46408       51.31407      -31.34987
O         39.41595       50.76723      -32.63676
O         38.48654       50.66058      -30.59712
H         42.12854       52.46307      -32.43102
H         40.15217       53.13705      -33.27087
H         38.22861       53.05079      -31.78501
H         39.27161       53.19342      -30.32561
N         40.90645       55.84690      -33.08219
C         41.86771       55.36340      -34.06166
C         42.62630       56.50400      -34.73611
O         42.61100       57.61326      -34.22273
H         40.73662       56.86116      -33.00400
H         41.27002       54.81344      -34.81816
H         42.61337       54.68012      -33.60768
N         43.28913       56.35355      -35.92202
C         43.28732       55.13178      -36.71718
C         42.30910       55.28059      -37.86331
O         41.84905       56.38278      -38.13606
C         44.69907       54.73238      -37.20333
C         45.35067       55.74722      -38.11165
O         45.69017       56.96619      -37.65125
O         45.61508       55.45178      -39.26615
H         43.70207       57.20249      -36.33422
H         42.91972       54.28565      -36.10487
H         44.61222       53.76951      -37.75459
H         45.36242       54.55816      -36.33008
N         41.87084       54.17425      -38.52017
C         40.84554       54.21079      -39.54532
C         39.57424       54.84685      -39.02869
O         39.08112       55.77106      -39.65924
H         42.23971       53.25072      -38.24463
H         40.61859       53.16776      -39.85579
H         41.21553       54.76297      -40.43680
N         38.99727       54.40770      -37.87361
C         37.74247       54.93858      -37.35044
C         37.95460       55.59563      -35.99864
O         38.55632       54.98713      -35.12717
C         36.69909       53.80905      -37.21356
C         36.44996       53.11991      -38.56126
O         35.49625       54.36485      -36.74288
H         39.45921       53.65000      -37.34649
H         37.30834       55.68992      -38.04644
H         37.07367       53.05691      -36.48092
H         34.86767       53.61402      -36.58316
H         36.07778       53.85446      -39.30666
H         37.38254       52.65352      -38.94169
H         35.69223       52.31761      -38.43901
N         37.41504       56.82630      -35.75216
C         37.38912       57.47939      -34.44255
C         36.23345       56.94053      -33.59075
O         35.34053       57.69115      -33.22578
C         37.37090       59.04626      -34.57873
C         36.15453       59.60359      -35.38659
C         38.70360       59.53157      -35.17662
C         36.03165       61.12765      -35.34203
H         36.88453       57.26100      -36.51660
H         38.31900       57.23480      -33.88112
H         37.31534       59.45323      -33.54307
H         35.20404       59.21456      -34.97771
H         36.20574       59.30053      -36.45097
H         38.77035       60.63800      -35.16385
H         39.55541       59.15686      -34.56965
H         38.82161       59.17388      -36.22069
H         35.94870       61.47864      -34.29163
H         36.89258       61.62135      -35.83389
H         35.11437       61.43496      -35.88867
N         36.23403       55.64677      -33.16087
C         35.21697       55.08840      -32.27773
C         35.85265       54.89966      -30.91827
O         35.91928       53.79223      -30.40300
C         34.58261       53.81255      -32.90177
C         35.57554       52.67877      -33.22136
O         33.92129       54.18215      -34.08341
H         37.03376       55.04825      -33.38725
H         34.38488       55.80870      -32.11859
H         33.83294       53.42997      -32.16972
H         33.26359       53.46534      -34.28409
H         36.33550       52.99554      -33.96382
H         36.08609       52.30681      -32.31337
H         35.02223       51.82147      -33.65821
N         36.38666       55.98874      -30.29014
C         37.15499       55.87960      -29.05869
C         36.30709       55.37312      -27.90452
O         35.09088       55.30611      -28.02231
C         37.84990       57.22892      -28.69831
C         36.88760       58.29509      -28.16827
O         38.49686       57.76058      -29.82575
H         36.31229       56.90694      -30.75283
H         37.95661       55.13928      -29.26525
H         38.59362       57.05643      -27.88487
H         39.35424       57.28258      -29.92360
H         36.10269       58.53120      -28.91547
H         36.40997       57.95728      -27.22484
H         37.45710       59.22274      -27.94242
N         36.90983       54.99597      -26.74637
C         36.20093       54.55838      -25.55727
C         36.40362       53.06706      -25.30066
O         35.80860       52.55362      -24.36395
C         36.65934       55.47243      -24.40554
C         35.86505       55.32091      -23.10783
C         36.23957       56.45129      -22.14173
C         35.39050       56.39969      -20.86970
N         35.64874       57.56856      -20.02997
H         37.93103       55.03200      -26.69317
H         35.10752       54.70220      -25.69919
H         36.51504       56.51676      -24.76464
H         37.73971       55.32727      -24.19661
H         36.06183       54.33457      -22.63727
H         34.78243       55.40583      -23.34422
H         36.04884       57.42305      -22.64863
H         37.32004       56.39573      -21.87963
H         35.61777       55.46792      -20.30584
H         34.31294       56.39202      -21.14705
H         35.40127       58.44136      -20.55227
H         35.05268       57.51292      -19.17333
H         36.65547       57.60077      -19.74963
N         37.15178       52.28414      -26.13707
C         37.21358       50.83232      -26.00852
C         37.86474       50.42334      -24.70193
O         39.01100       50.78121      -24.46744
C         37.96330       50.22142      -27.21198
C         37.87010       48.68813      -27.23209
C         38.53505       48.12739      -28.45516
O         39.85016       48.32837      -28.66393
O         37.88729       47.48119      -29.26332
H         37.63520       52.71313      -26.93913
H         36.16977       50.44815      -26.05472
H         39.02754       50.54849      -27.20830
H         37.48431       50.60055      -28.14115
H         36.79716       48.39182      -27.23150
H         38.35486       48.25642      -26.33133
N         37.18106       49.64931      -23.81222
C         37.73467       49.19209      -22.55391
H         38.77200       49.55160      -22.39012
H         37.09935       49.55505      -21.71941
H         37.74317       48.08166      -22.54053
H         36.21931       49.35331      -24.03717
Ca        38.38458       48.85635      -31.98269
O         37.22375       46.00593      -32.14750
H         37.89151       45.28954      -32.29179
H         36.36267       45.60128      -32.42071
O         41.65026       49.05493      -31.53135
H         42.11745       49.20560      -30.67173
H         42.35863       49.12820      -32.21888
O         40.42983       46.19390      -31.05055
H         40.16451       45.24473      -31.14360
H         41.26503       46.26951      -31.57675
O         35.63703       49.45109      -32.60379
H         35.25437       48.90483      -31.87260
H         35.89724       48.79454      -33.29798

Ca 1.0



