%chk=apoCaM-CA-Ng.loop1.water3.frame718.chk
%nprocshared=20
%mem=10GB
%nosave
#b3lyp/svp scf=(tight,noincore,xqc) Test 
#IOP(5/87=12) Density=Current Pop=(MK,readradii) iop(6/33=2) iop(6/42=6)

apoCaM-CA-Ng.loop1.water3.frame718 

   0  1 
C         63.95262      122.39477       16.21415
C         65.16517      122.97980       15.55063
O         65.08296      124.09000       15.04534
H         63.12802      122.29829       15.47966
H         64.16917      121.39414       16.64499
H         63.63061      123.06321       17.04148
N         66.34528      122.30066       15.55854
C         67.59261      122.84612       15.04344
C         68.26588      121.90695       14.05787
O         68.68593      120.83953       14.45544
C         68.52796      123.21045       16.23749
C         68.31395      122.44746       17.55057
O         68.58708      121.13410       17.75301
O         67.87113      123.07558       18.49994
H         66.38223      121.38085       16.02420
H         67.41343      123.79255       14.48463
H         68.26115      124.26314       16.48829
H         69.59551      123.24531       15.92776
N         68.45465      122.25352       12.74821
C         69.34942      121.48760       11.88133
C         70.77450      121.73845       12.33301
O         71.17030      122.89312       12.42571
C         69.22122      121.86479       10.38961
C         67.93262      121.29962        9.76770
C         67.94367      121.44644        8.23584
C         66.81002      120.66455        7.54750
N         65.48219      121.16387        7.90079
H         68.03991      123.12625       12.38646
H         69.12071      120.40050       11.94942
H         70.06579      121.36760        9.85973
H         69.31492      122.96147       10.22881
H         67.04302      121.79064       10.21497
H         67.89242      120.21101        9.99341
H         68.89364      121.01552        7.84801
H         67.90995      122.51975        7.95026
H         66.88664      119.58548        7.81209
H         66.94534      120.74994        6.44629
H         65.29816      121.03544        8.92077
H         65.39927      122.17330        7.64204
H         64.76653      120.61785        7.36826
N         71.61309      120.69804       12.60385
C         72.98074      120.89972       13.08588
C         73.86778      119.66900       12.88172
O         73.36035      118.62248       12.50374
C         72.94264      121.41274       14.55584
C         72.10457      120.63559       15.52006
O         71.97631      121.07857       16.65071
O         71.40504      119.54066       15.17789
H         71.26349      119.74244       12.43878
H         73.45458      121.66393       12.43072
H         72.51212      122.43552       14.53924
H         73.93037      121.48923       15.03326
N         75.23066      119.71144       13.02678
C         75.99519      120.87221       13.46242
C         76.94101      121.39119       12.42493
O         76.48756      121.82219       11.37649
H         75.76616      118.85206       12.82626
H         76.52966      120.60526       14.39881
H         75.37623      121.75341       13.65852
N         78.26589      121.50558       12.70862
C         79.20087      122.20851       11.84102
C         79.34885      121.50070       10.50562
O         79.74328      120.34276       10.48316
C         80.56392      122.34799       12.55848
C         81.56217      123.22276       11.84306
O         81.29242      123.76438       10.78240
O         82.76887      123.43228       12.40185
H         78.60112      121.15805       13.62112
H         78.81056      123.24056       11.68978
H         81.00682      121.34152       12.72006
H         80.38884      122.81261       13.55426
N         79.07905      122.16157        9.34185
C         79.28084      121.56584        8.02938
C         78.30171      120.46032        7.68457
O         78.47951      119.85106        6.63851
H         78.78513      123.14934        9.38192
H         80.32208      121.18097        7.97636
H         79.17076      122.35063        7.24987
N         77.22894      120.16727        8.47263
C         76.25625      119.12105        8.17469
C         76.20361      118.11664        9.31054
O         76.91505      118.28265       10.29654
C         74.86138      119.74580        7.89177
C         74.26985      120.50689        9.08384
O         74.94914      120.62319        6.79932
H         77.07559      120.71841        9.32276
H         76.55370      118.56059        7.26077
H         74.13383      118.93794        7.64902
H         74.96184      120.06230        5.97973
H         74.17091      119.84095        9.96563
H         74.89556      121.38134        9.35004
H         73.25890      120.88349        8.82011
N         75.37130      117.03999        9.24594
C         75.29632      116.04991       10.31241
C         76.64035      115.34393       10.37493
O         77.30929      115.41140       11.39302
C         74.11687      115.04275       10.09822
C         72.75874      115.79771       10.00233
C         74.08683      114.01578       11.25036
C         71.55839      114.88873        9.72441
H         74.78591      116.92194        8.40576
H         75.09891      116.57728       11.27469
H         74.27238      114.49221        9.14488
H         72.78988      116.52324        9.16499
H         72.57089      116.36805       10.93711
H         73.90007      114.52555       12.22012
H         73.30346      113.24900       11.08978
H         75.04697      113.46402       11.31776
H         71.71946      114.30880        8.79076
H         71.36949      114.19320       10.56608
H         70.64739      115.51179        9.60020
N         77.08634      114.65500        9.28404
C         78.38629      113.98144        9.22578
C         78.43127      113.02020        8.03311
O         77.60167      113.12161        7.14319
C         79.51602      115.04733        9.19135
C         80.93157      114.47130        9.23091
O         79.36832      115.84280        8.04081
H         76.45324      114.60877        8.47592
H         78.46614      113.34588       10.13511
H         79.40927      115.67651       10.10495
H         79.59644      116.77617        8.29214
H         81.14585      113.87306        8.32652
H         81.66715      115.30343        9.26334
H         81.06828      113.84346       10.13594
N         79.31582      111.97677        8.01938
C         79.26046      110.92534        7.00781
C         78.83111      109.64600        7.69437
O         77.74106      109.16820        7.40359
C         80.60746      110.76617        6.25850
C         81.02933      112.05224        5.53645
O         80.53157      109.70625        5.33605
H         79.98212      111.87016        8.79680
H         78.48827      111.16156        6.24259
H         81.40996      110.52257        6.98594
H         79.84421      109.94275        4.65845
H         81.99562      111.88766        5.01385
H         80.26472      112.35290        4.78924
H         81.16559      112.88036        6.25837
N         79.62799      109.03222        8.61533
C         79.23005      107.81913        9.32198
C         79.56297      107.89855       10.80324
O         80.21386      108.84205       11.23552
C         79.86293      106.58593        8.64537
C         81.39970      106.59204        8.63758
C         81.93098      105.37664        7.86807
C         83.46318      105.37424        7.81446
N         83.95349      104.23442        7.03984
H         80.56891      109.41651        8.79193
H         78.12716      107.69080        9.24708
H         79.50256      106.56125        7.59307
H         79.50364      105.65959        9.14359
H         81.78190      106.57454        9.68154
H         81.76741      107.51182        8.13471
H         81.53660      105.40768        6.82825
H         81.57723      104.44181        8.35591
H         83.87194      105.32328        8.84804
H         83.81990      106.31583        7.34029
H         84.99847      104.25692        7.01988
H         83.64071      103.33814        7.47884
H         83.59667      104.28845        6.05776
N         79.13014      106.91948       11.64614
C         79.43592      106.88319       13.07175
C         78.98846      108.16172       13.78503
O         79.84777      108.79054       14.38627
C         78.86716      105.59166       13.70738
C         79.22230      105.44783       15.19760
C         78.70995      104.16426       15.80047
O         78.08158      103.35459       15.13514
O         78.94918      103.90505       17.09964
H         78.56223      106.15473       11.24797
H         80.54305      106.80968       13.17863
H         79.29929      104.72448       13.15969
H         77.77104      105.53660       13.58780
H         78.78312      106.29360       15.76809
H         80.32694      105.47193       15.31486
N         77.71731      108.66140       13.77556
C         76.59276      108.08349       13.07395
H         75.70216      108.73406       13.20657
H         76.80397      108.01674       11.98780
H         76.33073      107.09506       13.48806
H         77.54338      109.54271       14.28457
Ca        69.58649      119.57560       16.47362
O         70.66167      116.64030       16.08400
H         71.35183      116.44528       15.40135
H         70.41239      115.75406       16.44808
O         70.17855      118.19884       19.15713
H         70.78203      117.45131       18.91771
H         70.76688      118.99514       19.17924
O         68.49971      117.86892       13.86425
H         69.06573      117.84489       13.05216
H         67.99464      117.01763       13.84213

Ca 1.0



