%chk=apoCaM-CA-Ng.loop2.water4.frame1112.chk
%nprocshared=20
%mem=10GB
%nosave
#b3lyp/svp scf=(tight,noincore,xqc) Test 
#IOP(5/87=12) Density=Current Pop=(MK,readradii) iop(6/33=2) iop(6/42=6)

apoCaM-CA-Ng.loop2.water4.frame1112 

   -2  1 
C         69.36470       59.17329       69.32533
C         70.80625       59.62865       69.26910
O         71.06921       60.67844       69.83725
H         68.71799       59.94338       68.85563
H         69.13076       58.21004       68.84743
H         69.06910       59.06944       70.39070
N         71.82550       58.95120       68.65425
C         71.71283       57.71340       67.88814
C         72.23510       57.96245       66.47064
O         71.86813       58.98509       65.90934
C         72.39472       56.55602       68.66702
C         73.89205       56.69143       68.77640
O         74.60743       55.85184       68.25556
O         74.47210       57.73991       69.38137
H         72.76386       59.36682       68.72753
H         70.66010       57.42528       67.76685
H         72.16442       55.60169       68.14633
H         71.96098       56.49122       69.68721
N         73.08832       57.10126       65.82868
C         73.68670       57.33466       64.51694
C         74.69517       58.48552       64.51194
O         75.21564       58.77291       63.44258
C         72.60289       57.49793       63.43519
H         73.33197       56.20673       66.26494
H         74.26466       56.42571       64.23492
H         73.07033       57.56278       62.42947
H         71.93204       56.61181       63.44040
H         71.99036       58.40936       63.57825
N         75.04490       59.17267       65.64723
C         75.98314       60.29818       65.64781
C         77.15809       60.06847       66.63110
O         77.59727       58.74312       66.61720
C         75.20526       61.58525       65.99724
C         74.63186       61.62930       67.39725
O         74.87853       60.65649       68.29545
O         73.94586       62.58093       67.73131
H         74.62181       58.91144       66.54550
H         76.41229       60.42819       64.63071
H         74.36729       61.67540       65.27182
H         75.85951       62.47108       65.86766
N         78.27282       61.01162       66.42105
C         79.48392       60.66805       67.18770
C         79.32382       60.83582       68.68383
O         78.39723       60.28130       69.25500
H         77.97490       61.98416       66.66186
H         80.32793       61.29150       66.82310
H         79.77892       59.61801       66.98179
N         80.25034       61.54092       69.39190
C         80.25249       61.64475       70.84760
C         80.11147       63.10384       71.25576
O         80.08772       63.97060       70.39174
C         81.54308       60.94746       71.34858
C         81.72751       60.87731       72.84336
N         82.85423       61.36119       73.41943
O         80.87219       60.34724       73.53707
H         81.03102       61.98491       68.88298
H         79.37798       61.10703       71.27609
H         82.42548       61.43852       70.88494
H         81.51451       59.89705       70.98401
H         83.60125       61.78419       72.84886
H         82.99392       61.29492       74.43849
N         79.94149       63.44162       72.56365
C         79.67407       64.79425       73.01858
C         80.74916       65.29695       73.93899
O         81.76935       64.63798       74.08612
H         79.94075       62.70598       73.28251
H         78.69967       64.77312       73.54963
H         79.61516       65.51228       72.18503
N         80.60909       66.46057       74.63266
C         79.40235       67.29043       74.63466
C         79.19035       67.99669       73.29522
O         80.10718       68.64661       72.81278
C         79.47956       68.30504       75.80120
C         78.18251       69.10815       75.94846
O         79.68990       67.59252       76.99690
H         81.38530       66.72303       75.26176
H         78.52682       66.64720       74.87392
H         80.32891       69.00453       75.61241
H         80.30652       68.12803       77.56056
H         77.98378       69.71507       75.04161
H         77.32417       68.42230       76.12097
H         78.26350       69.79285       76.81888
N         77.96401       67.96892       72.68847
C         77.63493       68.68157       71.44704
C         76.73194       69.87308       71.75668
O         75.89814       69.74244       72.64339
C         76.95825       67.75095       70.38454
C         75.61582       67.13833       70.88295
C         77.93616       66.66350       69.92348
C         74.90273       66.26414       69.84992
H         77.20339       67.47971       73.18114
H         78.55870       69.06038       70.98087
H         76.73848       68.37811       69.49184
H         74.91656       67.95906       71.14505
H         75.78030       66.51551       71.78613
H         77.53496       66.11011       69.05089
H         78.89934       67.11481       69.60342
H         78.10746       65.94179       70.73773
H         75.49872       65.36060       69.60816
H         73.93496       65.91728       70.27049
H         74.70304       66.83897       68.92311
N         76.75019       71.05350       71.05936
C         77.66322       71.40473       69.96288
C         77.06029       72.48475       69.04460
O         75.94418       72.92430       69.28026
C         79.05674       71.80729       70.51961
C         79.05329       72.96282       71.48644
O         80.11022       73.33775       71.96823
O         77.91100       73.57772       71.84849
H         76.03328       71.74431       71.32979
H         77.78246       70.52567       69.29545
H         79.73546       72.05284       69.67730
H         79.51673       70.95535       71.05264
N         77.74337       72.92420       67.93997
C         77.18100       73.84880       66.95018
C         77.22989       73.24759       65.54363
O         78.09014       72.42380       65.27621
C         77.94247       75.19474       66.91444
C         77.49538       76.14730       67.99832
C         76.75898       77.29568       67.64309
C         77.78837       75.91805       69.35045
C         76.31906       78.18893       68.62007
C         77.35112       76.82123       70.32816
C         76.61533       77.95340       69.96280
H         78.69352       72.56782       67.76904
H         76.12137       74.06308       67.18769
H         77.71459       75.69062       65.94714
H         79.04355       75.04471       66.91360
H         76.51277       77.49885       66.60777
H         78.35926       75.04996       69.64410
H         75.74757       79.06278       68.33274
H         77.58156       76.64547       71.37037
H         76.27438       78.64999       70.71768
N         76.36710       73.67471       64.55839
C         75.26594       74.60175       64.75999
C         74.12033       73.94805       65.52230
O         73.24103       74.66847       65.96669
C         74.88397       75.01748       63.33888
C         75.13489       73.73885       62.56527
C         76.44899       73.24443       63.17636
H         75.58363       75.50950       65.31236
H         73.87529       75.47050       63.22871
H         75.63869       75.75648       62.98292
H         74.32657       73.02625       62.84480
H         75.14991       73.83991       61.45922
H         76.51610       72.14147       63.06310
H         77.33403       73.73569       62.71561
N         74.08916       72.59681       65.74173
C         73.12536       71.94656       66.61727
C         71.70121       72.25163       66.17265
O         71.34245       71.86878       65.06809
C         73.30223       70.39884       66.69744
C         74.68972       69.88962       67.15509
C         75.72707       69.71434       66.06898
O         76.96276       69.30006       66.40597
O         75.45061       69.85312       64.88731
H         74.80421       72.02323       65.30083
H         73.31490       72.33960       67.63600
H         73.00958       69.88570       65.75517
H         72.57760       70.07507       67.47793
H         74.55917       68.87031       67.57467
H         75.06995       70.54121       67.96886
N         70.81379       72.93714       66.95098
C         71.12260       73.45406       68.26823
H         71.95519       74.18641       68.20977
H         70.23627       73.97538       68.68723
H         71.39749       72.62422       68.95299
H         69.86446       73.10620       66.58403
Ca        76.49980       58.09022       68.49083
O         75.88080       60.22496       71.66996
H         75.77362       60.30168       72.65148
H         75.19772       60.83734       71.29727
O         76.80731       57.10594       72.01040
H         77.22746       56.21515       71.91015
H         76.63391       57.18873       72.98155
O         77.43319       55.26125       69.25191
H         77.20408       55.18304       68.29168
H         76.62104       54.95457       69.72855
O         79.27201       57.90464       70.34302
H         79.89629       57.79416       71.10263
H         79.83144       57.77882       69.53566

Ca 1.0



