%chk=apoCaM-CA-Ng.loop2.water2.frame835.chk
%nprocshared=20
%mem=10GB
%nosave
#b3lyp/svp scf=(tight,noincore,xqc) Test 
#IOP(5/87=12) Density=Current Pop=(MK,readradii) iop(6/33=2) iop(6/42=6)

apoCaM-CA-Ng.loop2.water2.frame835 

   -2  1 
C         60.38299       74.49604       80.80910
C         59.69694       73.45120       79.98337
O         59.10956       72.53556       80.54274
H         61.46507       74.51509       80.56119
H         59.93929       75.49001       80.59293
H         60.26842       74.27829       81.89250
N         59.74428       73.51896       78.62408
C         59.11075       72.52112       77.77071
C         57.59353       72.53772       77.93558
O         56.97329       71.50288       77.73490
C         59.51283       72.74300       76.29798
C         59.08844       71.60244       75.41510
O         59.55430       70.36010       75.65079
O         58.34448       71.79815       74.46804
H         60.27425       74.29130       78.18988
H         59.50850       71.52806       78.08116
H         60.62078       72.80898       76.23077
H         59.08668       73.70392       75.93289
N         56.93066       73.68872       78.26821
C         55.47551       73.76138       78.45045
C         54.98960       75.20998       78.62722
O         55.81919       76.09058       78.80869
C         55.07577       72.93440       79.68891
H         57.49402       74.54485       78.36456
H         55.00942       73.36109       77.52435
H         55.58206       73.34391       80.58975
H         53.98654       72.94993       79.87909
H         55.37145       71.87221       79.58023
N         53.67322       75.58741       78.56015
C         52.53925       74.71838       78.24742
C         51.93691       75.11034       76.90545
O         52.35846       76.10023       76.32313
C         51.49424       74.72378       79.38867
C         50.85045       76.06463       79.64021
O         49.64730       76.20011       79.48803
O         51.57866       77.10574       80.08571
H         53.47508       76.59244       78.67357
H         52.88197       73.67549       78.12154
H         51.97336       74.38368       80.33199
H         50.69846       73.98876       79.13852
N         51.01183       74.30828       76.30531
C         50.57103       74.51678       74.93418
C         49.08994       74.30580       74.76400
O         48.73476       73.32059       74.13094
H         50.72465       73.43790       76.78037
H         51.07830       73.73123       74.32994
H         50.87802       75.49726       74.51767
N         48.12650       75.12489       75.26603
C         48.31346       76.36765       76.01174
C         48.55589       77.54156       75.05530
O         47.81553       77.66824       74.08917
C         46.99626       76.62100       76.77977
C         46.98944       77.80453       77.69982
N         45.80788       78.23161       78.19750
O         48.02395       78.37998       77.99571
H         47.15303       74.81642       75.10212
H         49.11738       76.25349       76.77024
H         46.73593       75.73166       77.39529
H         46.18752       76.76843       76.03140
H         44.93258       77.74821       77.95594
H         45.74543       79.06358       78.79008
N         49.52090       78.47802       75.30255
C         49.78948       79.62482       74.43206
C         49.50001       80.98486       75.06669
O         49.80011       81.98574       74.43150
H         50.09376       78.37965       76.15050
H         49.19256       79.57364       73.49550
H         50.86099       79.58487       74.14374
N         48.87245       81.10913       76.27098
C         48.49225       82.38033       76.89568
C         49.06443       82.47676       78.31018
O         49.80401       81.59264       78.71774
C         46.94180       82.48865       76.90726
C         46.37483       82.59024       75.48992
O         46.37258       81.37733       77.55300
H         48.58711       80.25705       76.75733
H         48.88275       83.25099       76.32396
H         46.62203       83.43276       77.40393
H         46.05786       81.67685       78.44519
H         46.78550       83.49018       74.98217
H         46.62456       81.69044       74.89094
H         45.26951       82.69277       75.53451
N         48.73134       83.52135       79.12757
C         49.17211       83.65694       80.51376
C         47.98462       83.36102       81.41514
O         46.96121       84.02383       81.31018
C         49.75337       85.08120       80.75864
C         50.05198       85.38635       82.25386
C         51.00066       85.31503       79.88917
C         51.10295       84.48854       82.90945
H         48.08113       84.23966       78.77787
H         49.96754       82.91481       80.74128
H         48.98379       85.82273       80.44666
H         49.11011       85.30250       82.83802
H         50.39219       86.44130       82.34477
H         51.38834       86.34466       80.04235
H         51.80265       84.58866       80.13743
H         50.75450       85.19925       78.81317
H         50.79698       83.42664       82.86825
H         52.09074       84.60165       82.42097
H         51.21207       84.77835       83.97654
N         48.06698       82.34460       82.31983
C         46.97703       81.89751       83.17767
C         47.30883       82.04281       84.65708
O         46.45526       81.69733       85.46238
C         46.70877       80.41485       82.87199
C         46.26250       80.21780       81.45486
O         45.14691       80.57783       81.11582
O         47.08845       79.69094       80.53163
H         48.95146       81.82421       82.38607
H         46.05230       82.48879       82.98748
H         45.92477       79.99309       83.53974
H         47.64745       79.84977       83.05363
N         48.48719       82.58044       85.10028
C         48.75404       82.82106       86.51172
C         50.20118       82.47900       86.89596
O         51.09756       83.18446       86.45564
C         48.48335       84.31509       86.78108
C         48.84672       84.73142       88.18295
C         49.88107       85.66176       88.37952
C         48.17974       84.19567       89.29686
C         50.24821       86.04609       89.66910
C         48.54855       84.58704       90.58821
C         49.58296       85.50976       90.77358
H         49.16860       82.94143       84.42323
H         48.04616       82.24401       87.14038
H         47.41258       84.54636       86.58744
H         49.08120       84.90651       86.05195
H         50.41109       86.08293       87.53368
H         47.37892       83.47841       89.16673
H         51.05081       86.75828       89.80897
H         48.03454       84.17396       91.44595
H         49.87066       85.80974       91.77220
N         50.50887       81.47424       87.77975
C         51.81631       81.30777       88.41976
C         52.95227       80.84044       87.52264
O         54.04959       80.67385       88.03868
C         51.52876       80.30323       89.54566
C         50.43335       79.45393       88.94228
C         49.55181       80.51468       88.29052
H         52.14554       82.26117       88.88880
H         52.41122       79.75372       89.93932
H         51.06080       80.85290       90.39417
H         50.89423       78.83317       88.13905
H         49.89993       78.78313       89.64872
H         48.95042       80.03247       87.48885
H         48.89115       81.02210       89.02823
N         52.79723       80.61696       86.19201
C         53.89208       80.15647       85.33262
C         55.03804       81.15166       85.17508
O         56.01857       80.78796       84.54029
C         53.31574       79.74714       83.97253
C         52.71311       80.92618       83.18084
C         51.48795       80.43494       82.48957
O         50.54757       80.05995       83.17321
O         51.38175       80.36544       81.15673
H         51.85495       80.71702       85.78959
H         54.30682       79.23105       85.79074
H         52.53187       78.99992       84.23382
H         54.04674       79.21163       83.32812
H         53.47523       81.35582       82.49446
H         52.36569       81.74842       83.84265
N         55.00603       82.40382       85.72051
C         56.10814       83.34153       85.62390
H         56.97008       82.93259       85.05576
H         55.76357       84.26867       85.12144
H         56.46029       83.59615       86.64609
H         54.17767       82.72612       86.23768
Ca        49.31871       79.61172       80.69507
O         49.46590       77.25974       82.74786
H         48.66178       77.55978       83.24101
H         49.14428       76.51346       82.18311
O         51.75472       79.31156       77.95934
H         51.99440       78.44630       77.54362
H         52.48700       79.48410       78.60182

Ca 1.0



