%chk=apoCaM-CA-Ng.loop4.water5.frame582.chk
%nprocshared=20
%mem=10GB
%nosave
#b3lyp/svp scf=(tight,noincore,xqc) Test 
#IOP(5/87=12) Density=Current Pop=(MK,readradii) iop(6/33=2) iop(6/42=6)

apoCaM-CA-Ng.loop4.water5.frame582 

   -3  1 
C         45.16546      109.84943       62.60318
C         44.46043      110.09169       61.30451
O         44.94555      109.61194       60.29322
H         46.19587      110.26084       62.53844
H         44.64027      110.33634       63.44917
H         45.22785      108.75701       62.79217
N         43.30282      110.82055       61.24571
C         42.61465      111.15167       59.99349
C         42.11825      109.91908       59.23995
O         41.68395      110.05954       58.10485
C         43.53810      112.03634       59.12699
C         43.90472      113.27095       59.90015
O         42.95060      114.15236       60.25531
O         45.05653      113.45441       60.25328
H         42.90627      111.19310       62.12115
H         41.71261      111.76214       60.22130
H         43.03362      112.34586       58.18662
H         44.45603      111.48239       58.84127
N         42.12298      108.68361       59.82002
C         41.73264      107.45727       59.13194
C         40.27709      107.51072       58.64717
O         39.42582      107.90122       59.43303
C         41.96877      106.19408       60.01876
C         41.11777      106.20670       61.32207
C         43.47681      106.03169       60.30441
C         41.27122      104.95114       62.17457
H         42.44202      108.60422       60.79050
H         42.43014      107.37326       58.28548
H         41.66426      105.31009       59.41381
H         40.04346      106.26579       61.06020
H         41.36750      107.08305       61.95450
H         44.04519      106.01198       59.34936
H         43.87057      106.85790       60.93069
H         43.68500      105.07119       60.81502
H         41.00253      104.05080       61.58356
H         42.30421      104.85446       62.56367
H         40.58899      105.02289       63.04810
N         39.87708      107.17613       57.37992
C         40.74983      106.68870       56.31653
C         41.05135      107.78833       55.32341
O         41.97444      107.60431       54.54757
C         40.21707      105.40534       55.63633
C         38.91704      105.58037       54.89453
O         37.78295      105.87984       55.55477
O         38.87640      105.40338       53.68720
H         38.88394      107.32677       57.15122
H         41.72019      106.37320       56.72408
H         40.09235      104.60250       56.39463
H         40.98942      105.05845       54.91160
N         40.38144      108.98083       55.31753
C         40.73338      110.05699       54.41309
C         40.45971      109.68645       52.97530
O         39.30373      109.55312       52.60004
H         39.62509      109.16267       55.99121
H         41.80595      110.30357       54.56981
H         40.14619      110.96965       54.65272
N         41.49861      109.48787       52.12002
C         41.35083      109.18062       50.70019
C         41.66793      107.72423       50.38237
O         41.70095      107.37657       49.21000
C         42.19146      110.17336       49.85280
C         43.68648      110.20594       50.09272
O         44.28220      109.44777       51.02990
O         44.37510      110.96068       49.42574
H         42.44732      109.53206       52.51474
H         40.29496      109.31883       50.37919
H         41.80573      111.19875       50.03746
H         42.02643      109.94021       48.77848
N         41.83819      106.79413       51.36636
C         42.11712      105.39309       51.10637
C         43.50337      105.15908       50.54776
O         43.81316      104.01490       50.24973
H         41.71806      107.06586       52.34162
H         41.34502      104.99143       50.41522
H         42.05061      104.82333       52.05995
N         44.40630      106.17656       50.40926
C         45.75106      106.02148       49.87565
C         46.63138      105.14226       50.75478
O         47.73563      104.82900       50.33255
C         45.70933      105.57961       48.39592
C         44.98781      106.63581       47.53257
C         44.97251      106.30546       46.06099
N         44.40828      107.17103       45.18710
O         45.46927      105.26792       45.64701
H         44.14781      107.12158       50.69875
H         46.25219      107.01680       49.87846
H         45.21760      104.59101       48.28748
H         46.75249      105.49086       48.02174
H         45.50531      107.61274       47.65589
H         43.93755      106.74986       47.87358
H         43.99066      108.05396       45.51720
H         44.39418      106.96318       44.17767
N         46.27719      104.83271       52.04072
C         47.18243      104.16023       52.96966
C         47.84375      105.15598       53.90647
O         48.72274      104.72961       54.64551
C         46.46609      103.05974       53.81010
C         45.30894      103.61866       54.66438
C         45.97092      101.90332       52.94006
H         45.39920      105.20921       52.41949
H         48.01648      103.68694       52.40526
H         47.21722      102.63060       54.51160
H         45.66050      104.44575       55.31724
H         44.47632      103.99236       54.03351
H         44.90217      102.82265       55.32287
H         45.52669      101.11387       53.58540
H         45.20539      102.24885       52.21539
H         46.82344      101.45301       52.38892
N         47.48408      106.47519       53.96024
C         48.09853      107.41403       54.89034
C         48.73617      108.56996       54.12059
O         48.52997      108.68257       52.91760
C         47.00843      107.89182       55.87770
C         47.50019      108.54145       57.15087
N         46.63209      109.21049       57.93712
O         48.66252      108.43511       57.50861
H         46.73009      106.83377       53.35524
H         48.89764      106.89398       55.46015
H         46.40142      107.02162       56.21236
H         46.32402      108.57571       55.32962
H         45.64188      109.30437       57.66780
H         46.96236      109.65106       58.80775
N         49.58468      109.43088       54.74499
C         50.30286      110.50317       54.06317
C         51.49130      110.99164       54.89211
O         51.68069      110.54169       56.01565
C         49.36154      111.66446       53.64608
C         48.73662      112.43252       54.79361
C         47.77765      111.84114       55.63520
C         49.08670      113.77843       55.00469
C         47.18248      112.58160       56.66377
C         48.49440      114.51373       56.03252
C         47.54093      113.92352       56.86064
O         46.97521      114.66220       57.83303
H         49.80168      109.24603       55.72581
H         50.75069      110.06956       53.14099
H         48.54868      111.29228       52.98734
H         49.95770      112.36642       53.02574
H         47.47338      110.81714       55.48573
H         49.81781      114.26539       54.37284
H         46.43860      112.11556       57.29855
H         48.77022      115.54954       56.18323
H         46.29170      114.30558       58.40963
N         52.37560      111.88391       54.36811
C         53.58195      112.31239       55.06315
C         53.54349      113.81716       55.28722
O         54.17975      114.53470       54.52619
C         54.83875      111.91238       54.25409
C         54.99072      110.39426       54.09202
C         56.30384      110.06387       53.43870
O         56.55829      110.47482       52.31757
O         57.21265      109.31682       54.09507
H         52.21352      112.25291       53.41818
H         53.70297      111.80600       56.03791
H         55.72858      112.28693       54.80939
H         54.82324      112.39028       53.24896
H         54.15915      109.98714       53.47777
H         54.96194      109.91218       55.09323
N         52.84808      114.41857       56.29886
C         52.06735      113.75324       57.34895
C         52.95704      112.87990       58.22379
O         54.17001      113.04461       58.19879
C         51.41459      114.86889       58.20642
C         50.41580      114.48427       59.31717
C         49.91402      115.73428       60.02495
O         50.37649      116.83170       59.74925
O         48.95103      115.67431       60.96568
H         52.89322      115.45069       56.31674
H         51.28511      113.13566       56.85858
H         50.86183      115.53436       57.50748
H         52.24074      115.45800       58.66552
H         50.89066      113.82535       60.07308
H         49.55885      113.94786       58.86146
N         52.41438      111.90449       59.00570
C         53.20347      111.03039       59.85326
H         54.28844      111.26602       59.81740
H         52.86186      111.12989       60.90443
H         53.06690      109.97735       59.52867
H         51.39481      111.75423       58.98830
Ca        47.72811      113.86867       61.51632
O         46.91705      116.46003       63.67232
H         47.14623      117.36964       63.35516
H         47.34565      116.39189       64.56231
O         49.03628      111.41609       60.79609
H         48.39263      111.49140       60.04705
H         48.47010      111.26708       61.59520
O         49.10412      113.69396       64.16770
H         48.43502      113.67774       64.89732
H         49.47669      114.61108       64.19147
O         45.65899      116.49592       60.64252
H         46.06567      117.03010       59.91508
H         44.74809      116.28771       60.31576
O         44.42785      114.43170       63.19798
H         44.08831      114.56745       64.11784
H         43.87371      115.03350       62.64060

Ca 1.0



