%chk=apoCaM-CA-Ng.loop2.water4.frame61.chk
%nprocshared=20
%mem=10GB
%nosave
#b3lyp/svp scf=(tight,noincore,xqc) Test 
#IOP(5/87=12) Density=Current Pop=(MK,readradii) iop(6/33=2) iop(6/42=6)

apoCaM-CA-Ng.loop2.water4.frame61 

   -2  1 
C         54.64326       50.53529       98.44612
C         55.94244       51.26370       98.63221
O         56.52812       51.68296       97.64442
H         53.91181       51.20169       97.94371
H         54.80932       49.63452       97.81859
H         54.21573       50.21167       99.41889
N         56.46059       51.43922       99.87992
C         57.72122       52.12037      100.14383
C         58.70997       51.12700      100.72093
O         59.76098       50.96491      100.13105
C         57.48373       53.31328      101.08943
C         58.74854       54.08880      101.34152
O         59.22366       54.21770      102.59485
O         59.34508       54.61268      100.41373
H         55.93932       51.05836      100.68430
H         58.14908       52.52718       99.19919
H         57.06800       52.95710      102.05664
H         56.74106       54.00072      100.62968
N         58.40963       50.42259      101.85338
C         59.19966       49.39322      102.53700
C         60.53786       48.99047      101.90767
O         61.56700       49.07823      102.56523
C         59.37743       49.81224      104.00448
H         57.49527       50.61368      102.28949
H         58.58525       48.46603      102.54596
H         59.98249       50.74071      104.07478
H         58.38631       49.99490      104.47306
H         59.87642       49.00303      104.58077
N         60.57773       48.44467      100.65727
C         61.76005       47.80753      100.07450
C         62.95227       48.71895       99.81300
O         63.96171       48.21249       99.34021
C         62.09615       46.51460      100.85493
C         60.91847       45.57745      100.71998
O         60.52132       45.24549       99.47306
O         60.29233       45.19746      101.69601
H         59.70043       48.38730      100.11810
H         61.49412       47.47170       99.04897
H         62.33125       46.73136      101.91856
H         62.97782       46.01398      100.40001
N         62.87506       50.07665       99.92670
C         63.90146       50.97368       99.41669
C         64.04179       50.93109       97.89270
O         64.88474       51.65376       97.38063
H         62.04600       50.51489      100.33450
H         64.87426       50.73306       99.89770
H         63.63364       52.01782       99.69071
N         63.28137       50.11051       97.10175
C         63.44781       50.00011       95.65419
C         62.89645       51.20807       94.92621
O         62.27798       52.06807       95.53896
C         62.69827       48.74637       95.13549
C         63.29600       47.47322       95.67477
N         64.55560       47.11143       95.33681
O         62.63355       46.75189       96.40446
H         62.57928       49.49840       97.53054
H         64.53035       49.89706       95.42042
H         62.73689       48.67900       94.02796
H         61.62658       48.82401       95.42901
H         65.11985       47.69676       94.70343
H         64.96260       46.23463       95.69339
N         63.07518       51.30491       93.57781
C         62.49459       52.35054       92.75575
C         61.69281       51.76109       91.61318
O         61.63254       50.54805       91.45993
H         63.65286       50.59434       93.10191
H         63.31614       52.95740       92.31821
H         61.84395       53.02402       93.35293
N         61.07916       52.59777       90.73277
C         60.41373       52.14594       89.50904
C         59.19670       51.23462       89.71336
O         58.69421       50.74700       88.71051
C         60.04622       53.36358       88.61195
C         59.00669       54.29637       89.24548
O         61.20036       54.11261       88.32918
H         61.18013       53.60930       90.90441
H         61.15983       51.54626       88.94061
H         59.60521       53.00043       87.65385
H         61.70481       53.61423       87.63434
H         58.06181       53.75480       89.42347
H         59.36301       54.72337       90.20541
H         58.78966       55.13891       88.55565
N         58.66675       50.94830       90.94067
C         57.52180       50.04629       91.13110
C         57.91623       48.84832       91.98990
O         59.05685       48.76658       92.42466
C         56.29800       50.81636       91.72908
C         56.61155       51.45261       93.10949
C         55.78708       51.85310       90.71632
C         55.39010       52.08354       93.78185
H         59.08314       51.37702       91.77751
H         57.19173       49.61608       90.16023
H         55.46652       50.09465       91.86665
H         57.39544       52.23260       93.01065
H         56.98745       50.66216       93.79355
H         56.53726       52.64810       90.56333
H         55.57114       51.36262       89.74265
H         54.84062       52.31883       91.05552
H         55.68007       52.47440       94.77976
H         54.99718       52.93638       93.19231
H         54.58941       51.32579       93.91634
N         56.99124       47.88752       92.29473
C         57.25128       46.76605       93.19074
C         56.81499       45.42152       92.57100
O         56.85022       44.41421       93.26330
C         56.53683       47.09557       94.52152
C         56.94523       46.25616       95.70358
O         56.42595       46.54238       96.91184
O         57.76858       45.36043       95.60335
H         56.02563       47.99727       91.95268
H         58.33611       46.70692       93.42841
H         55.43721       47.06475       94.38525
H         56.81111       48.13657       94.80298
N         56.44690       45.31457       91.25661
C         56.08277       44.04729       90.61499
C         54.72533       43.55371       91.10631
O         53.77741       44.32373       91.03787
C         56.08735       44.22108       89.07524
C         55.83136       42.92724       88.32539
C         56.88660       42.27034       87.66524
C         54.54101       42.36703       88.26632
C         56.65700       41.07423       86.97696
C         54.31550       41.17501       87.57216
C         55.37276       40.52725       86.93054
H         56.49221       46.15228       90.65908
H         56.88679       43.31122       90.82500
H         57.10492       44.58818       88.81295
H         55.36501       44.99631       88.73973
H         57.89053       42.67507       87.69154
H         53.70337       42.85359       88.74621
H         57.47553       40.57047       86.47901
H         53.31902       40.75443       87.53037
H         55.19609       39.60325       86.39499
N         54.52521       42.27140       91.55691
C         53.24295       41.73703       92.00375
C         52.58708       42.58696       93.06468
O         51.41236       42.90119       92.93437
C         53.60351       40.36218       92.57828
C         54.73282       39.94625       91.67059
C         55.54260       41.23764       91.57369
H         52.57342       41.62250       91.12008
H         54.04486       40.47125       93.59509
H         52.74827       39.65490       92.63890
H         55.31146       39.05779       91.99949
H         54.28855       39.73200       90.66993
H         56.19930       41.39947       92.45595
H         56.13707       41.18493       90.63719
N         53.31850       43.03733       94.12337
C         52.78258       43.91429       95.15740
C         52.17061       45.14518       94.51224
O         51.00125       45.41511       94.74884
C         53.89032       44.34392       96.14539
C         54.49609       43.18097       96.95764
C         55.58011       43.69125       97.87082
O         56.84625       43.25274       97.72352
O         55.32736       44.53318       98.71801
H         54.31745       42.78550       94.15518
H         51.99192       43.37962       95.73017
H         53.45852       45.07718       96.86209
H         54.69512       44.84602       95.57258
H         54.93940       42.42506       96.27626
H         53.70564       42.68842       97.56195
N         52.89585       45.90608       93.64492
C         52.36017       47.05916       92.94994
H         51.30536       47.26927       93.22621
H         52.97327       47.95242       93.18848
H         52.40133       46.87668       91.85511
H         53.86862       45.63892       93.43729
Ca        58.60926       44.34134       98.65361
O         57.90488       42.11062      100.64934
H         58.78093       41.93473      100.22217
H         58.04524       42.94122      101.17013
O         57.35230       46.44821      100.71621
H         57.32607       47.32121      100.24984
H         56.40778       46.26188      100.94761
O         60.29964       42.78607       96.79284
H         61.24698       42.49936       96.79480
H         59.82556       42.08231       97.30371
O         59.47869       47.26180       97.38839
H         60.02116       46.60833       96.87961
H         59.50811       48.08754       96.84382

Ca 1.0



