%chk=apoCaM-CA-Ng.loop3.water4.frame301.chk
%nprocshared=20
%mem=10GB
%nosave
#b3lyp/svp scf=(tight,noincore,xqc) Test 
#IOP(5/87=12) Density=Current Pop=(MK,readradii) iop(6/33=2) iop(6/42=6)

apoCaM-CA-Ng.loop3.water4.frame301 

   0  1 
C         85.68398       28.81963       41.12391
C         86.52136       28.52973       42.33668
O         87.57136       27.92012       42.19755
H         84.76011       29.37598       41.39177
H         86.26613       29.43442       40.40637
H         85.38927       27.86694       40.63656
N         86.10440       28.93488       43.56996
C         86.83082       28.71072       44.81490
C         87.00788       27.22152       45.07328
O         88.11437       26.77732       45.34971
C         88.16127       29.50572       44.80752
C         88.90485       29.50383       46.12021
O         89.96908       30.09535       46.20404
O         88.41590       28.87158       47.20562
H         85.20236       29.43048       43.64357
H         86.19856       29.11638       45.63635
H         87.93630       30.56490       44.55699
H         88.83326       29.09878       44.02231
N         85.94067       26.38057       44.96453
C         86.02590       24.94888       45.21549
C         86.10492       24.22032       43.89089
O         85.21374       23.46521       43.52711
C         84.86090       24.48773       46.11678
C         84.75128       25.26425       47.44424
C         86.02476       25.20758       48.30267
C         85.82219       25.94815       49.63107
N         87.05094       25.94589       50.42438
H         85.03635       26.76229       44.64638
H         86.96863       24.68775       45.74316
H         84.99072       23.40514       46.33767
H         83.89903       24.61513       45.57321
H         83.90375       24.83085       48.01907
H         84.50975       26.32791       47.22863
H         86.86189       25.69491       47.76035
H         86.29353       24.14861       48.50779
H         85.00807       25.45603       50.20838
H         85.52357       27.00133       49.42976
H         87.34876       24.96434       50.62803
H         87.81114       26.44559       49.90761
H         86.87594       26.44254       51.32768
N         87.23102       24.38447       43.14328
C         87.49186       23.72033       41.87404
C         88.97018       23.89241       41.55658
O         89.43655       25.02148       41.48359
C         86.59334       24.30380       40.76365
C         86.74074       23.59715       39.44186
O         86.08353       23.97438       38.48569
O         87.56913       22.54359       39.29950
H         87.97563       24.97478       43.54407
H         87.27338       22.63519       41.99156
H         86.82887       25.38202       40.62860
H         85.52803       24.21800       41.06484
N         89.78039       22.80286       41.43446
C         91.23016       22.88786       41.36086
C         91.80497       23.59979       40.15469
O         93.02141       23.72632       40.11894
H         89.36502       21.86093       41.49670
H         91.65237       21.85954       41.37816
H         91.58745       23.41320       42.27351
N         91.04478       24.09393       39.13302
C         91.65426       24.80419       38.00906
C         92.28405       26.12675       38.43335
O         92.98665       26.71149       37.62111
C         90.62958       25.10332       36.89438
C         90.09826       23.85562       36.23219
N         90.32199       23.63274       34.91547
O         89.45571       23.04387       36.87976
H         90.02658       23.95049       39.14158
H         92.45483       24.15787       37.58271
H         91.13589       25.71487       36.11965
H         89.78658       25.70559       37.29936
H         90.86090       24.30022       34.34675
H         89.96068       22.78660       34.45634
N         92.05074       26.68992       39.65399
C         92.58789       27.97932       40.04796
C         92.11168       29.06416       39.11734
O         92.93437       29.78171       38.56757
H         91.43806       26.21952       40.33249
H         93.69909       27.94122       40.07175
H         92.22786       28.22114       41.07168
N         90.77833       29.22490       38.88904
C         90.22434       30.25948       38.02363
C         89.55050       29.57309       36.85481
O         88.65820       28.76358       37.06430
C         89.27822       31.14629       38.85051
C         90.02513       31.64739       40.06909
C         89.65637       31.20278       41.35000
C         91.13348       32.50336       39.93358
C         90.39355       31.59169       42.47129
C         91.86647       32.89307       41.05879
C         91.50183       32.43135       42.33148
O         92.21127       32.77927       43.42386
H         90.11825       28.58222       39.35422
H         91.03675       30.90966       37.63171
H         88.41022       30.52833       39.16894
H         88.89179       31.99598       38.24683
H         88.81597       30.53246       41.47935
H         91.44150       32.85540       38.95705
H         90.11336       31.22869       43.45001
H         92.72458       33.54249       40.93901
H         92.99628       33.34256       43.37042
N         90.03345       29.76963       35.59698
C         89.67664       28.93692       34.45311
C         90.86127       28.02842       34.14924
O         90.63820       26.85494       33.88543
C         89.25580       29.78058       33.21721
C         88.11170       30.78015       33.53297
C         88.86120       28.86673       32.03454
C         86.80554       30.14765       34.02751
H         90.77787       30.46907       35.47068
H         88.82167       28.27107       34.70457
H         90.12948       30.38778       32.89136
H         87.88770       31.36474       32.61327
H         88.46089       31.49948       34.30372
H         88.01409       28.20082       32.30197
H         88.57190       29.47552       31.15196
H         89.70796       28.22041       31.72601
H         86.05904       30.94919       34.20924
H         86.37945       29.45325       33.27543
H         86.96115       29.60728       34.98266
N         92.15349       28.47056       34.25177
C         93.30001       27.58985       34.07230
C         93.51111       27.22472       32.61693
O         94.35403       26.37746       32.36081
C         94.58799       28.24018       34.61678
O         94.49230       28.46241       35.99824
H         92.33886       29.44486       34.52065
H         93.12559       26.66040       34.66075
H         94.81882       29.18977       34.08130
H         95.45150       27.56049       34.45222
H         93.99805       29.31195       36.12603
N         92.80023       27.81969       31.60892
C         92.98437       27.51296       30.19511
C         92.61812       26.07639       29.85082
O         92.81997       25.70014       28.70048
C         94.41535       27.86432       29.75452
H         92.10919       28.54890       31.82781
H         92.30778       28.16867       29.60271
H         94.62832       28.92921       29.99005
H         95.17816       27.23170       30.24973
H         94.52180       27.72942       28.65726
N         92.03811       25.22608       30.75147
C         91.68236       23.85066       30.43515
C         90.18206       23.66266       30.46372
O         89.46325       24.57271       30.86485
C         92.36691       22.90582       31.42644
H         91.80165       25.55797       31.69888
H         92.02146       23.59255       29.40820
H         92.02890       23.12473       32.46241
H         92.13215       21.84662       31.19366
H         93.46800       23.04275       31.37968
N         89.63335       22.51122       29.97788
C         88.19941       22.24183       29.90858
C         87.44319       23.21781       29.00633
O         86.22826       23.09467       28.92394
C         87.58872       22.15726       31.32812
C         88.19977       20.97973       32.10659
C         87.58888       20.82568       33.46651
O         88.37438       20.84571       34.55797
O         86.38836       20.64030       33.58923
H         90.26683       21.77929       29.61818
H         88.04828       21.24206       29.44333
H         86.49557       21.97162       31.23862
H         87.72698       23.10759       31.88556
H         89.29673       21.12257       32.21493
H         88.02105       20.03830       31.54307
N         88.07074       24.17216       28.25768
C         87.33804       25.06886       27.39047
H         86.62772       25.67878       27.98749
H         88.04288       25.75153       26.86917
H         86.78030       24.48614       26.62677
H         89.09395       24.26910       28.26725
Ca        86.64632       21.60128       36.68413
O         85.76406       19.18689       38.19073
H         85.70068       18.25543       37.86152
H         86.27597       19.11996       39.03558
O         83.67650       21.65091       36.26131
H         83.82914       20.68121       36.13016
H         83.59686       21.75867       37.24250
O         86.32168       24.21948       35.05367
H         85.66235       24.56655       35.70601
H         87.12976       24.77302       35.19860
O         89.27622       19.76629       37.35714
H         89.09550       19.54741       38.30567
H         90.18019       20.17046       37.36261

Ca 1.0



