%chk=apoCaM-CA-Ng.loop2.water4.frame1308.chk
%nprocshared=20
%mem=10GB
%nosave
#b3lyp/svp scf=(tight,noincore,xqc) Test 
#IOP(5/87=12) Density=Current Pop=(MK,readradii) iop(6/33=2) iop(6/42=6)

apoCaM-CA-Ng.loop2.water4.frame1308 

   -2  1 
C         46.28834       19.16481       78.93686
C         47.31908       19.25181       80.03703
O         48.42013       18.77798       79.79713
H         45.32532       19.66062       79.13757
H         46.70335       19.66032       78.03342
H         46.09041       18.10051       78.69756
N         47.12205       19.86075       81.24550
C         45.87448       20.47225       81.70848
C         45.52031       20.14082       83.16028
O         44.44932       20.55289       83.58650
C         45.94492       21.99904       81.50806
C         47.03176       22.67334       82.29715
O         47.16927       23.88003       82.21363
O         47.84903       21.97243       83.10236
H         47.95990       19.94778       81.83704
H         45.02087       20.10415       81.11622
H         44.97167       22.45297       81.79580
H         46.11476       22.20831       80.43007
N         46.34789       19.43673       83.99006
C         46.00955       19.15251       85.37986
C         45.78872       20.42567       86.17788
O         44.70834       20.56236       86.73627
C         47.09967       18.30633       86.04663
H         47.24614       19.08114       83.63989
H         45.07382       18.54767       85.40022
H         47.22321       17.34916       85.49625
H         48.07190       18.84262       86.05663
H         46.80929       18.06817       87.09310
N         46.75313       21.39394       86.28734
C         46.56830       22.58745       87.11498
C         46.44931       23.86407       86.30207
O         46.68777       23.85037       85.10616
C         47.59663       22.60873       88.26887
C         49.09689       22.55994       88.02385
O         49.72936       22.72361       86.84089
O         49.80168       22.35354       88.99893
H         47.64513       21.27151       85.78580
H         45.57930       22.52429       87.61845
H         47.37684       21.68363       88.84731
H         47.38863       23.46805       88.94104
N         45.91946       24.98599       86.87466
C         45.62703       26.19668       86.11617
C         46.86813       27.00241       85.82258
O         47.93837       26.64333       86.28862
H         45.61204       24.94584       87.85855
H         44.95147       26.84937       86.70963
H         45.09445       25.92432       85.17869
N         46.78864       28.12733       85.05026
C         47.94772       28.96724       84.75069
C         47.71065       30.42549       85.12994
O         46.61783       30.79884       85.52874
C         48.28506       28.88414       83.24707
C         48.65844       27.49125       82.81546
N         47.99050       26.87988       81.81169
O         49.59558       26.92152       83.35497
H         45.87772       28.38195       84.63691
H         48.83363       28.62153       85.32616
H         49.16042       29.52689       83.02012
H         47.42514       29.26092       82.65149
H         47.20603       27.34589       81.33310
H         48.27540       25.94390       81.49423
N         48.74345       31.30851       85.00797
C         48.62982       32.74246       85.26954
C         49.96998       33.45563       85.09216
O         50.96249       32.79902       84.81624
H         49.64648       30.92094       84.70455
H         48.27979       32.90187       86.31256
H         47.88823       33.17369       84.56432
N         50.12965       34.80309       85.23935
C         49.08985       35.77802       85.54532
C         48.98384       36.84258       84.44300
O         48.19790       37.76354       84.60521
C         49.42038       36.45417       86.90122
C         49.40042       35.44074       88.05438
O         50.68227       37.06965       86.82787
H         51.08961       35.17093       85.13145
H         48.09292       35.29434       85.63415
H         48.64176       37.22386       87.11005
H         50.76384       37.66503       87.62043
H         50.16219       34.64747       87.90279
H         49.61795       35.95645       89.01381
H         48.39693       34.97127       88.13203
N         49.74663       36.79030       83.30577
C         49.75994       37.82029       82.26632
C         49.32722       37.20103       80.93533
O         49.90893       36.19264       80.56190
C         51.20319       38.40474       82.14560
C         51.61447       39.09200       83.47580
C         51.30007       39.39408       80.96746
C         53.04392       39.64078       83.47739
H         50.38398       35.99664       83.15850
H         49.10252       38.66575       82.53692
H         51.90841       37.56796       81.93911
H         51.54866       38.35435       84.30250
H         50.91367       39.92672       83.69984
H         50.63671       40.26884       81.13087
H         52.33876       39.74906       80.82227
H         51.02045       38.90179       80.01368
H         53.76941       38.82735       83.26608
H         53.17146       40.45411       82.73510
H         53.27060       40.07157       84.47535
N         48.39780       37.76253       80.09715
C         47.67082       39.00407       80.35031
C         47.11529       39.59249       79.05610
O         46.34167       38.92448       78.38231
C         46.52756       38.79431       81.37468
C         45.46615       37.83499       80.90243
O         45.77577       36.55087       80.64086
O         44.31517       38.21739       80.76027
H         48.26303       37.30571       79.18032
H         48.37394       39.75722       80.75920
H         46.05959       39.78380       81.57734
H         46.91959       38.41118       82.33514
N         47.45029       40.86063       78.66456
C         46.84549       41.52747       77.51013
C         47.42567       42.93277       77.33153
O         47.37446       43.69098       78.29422
C         45.31999       41.69402       77.73547
C         44.65565       42.30780       76.52917
C         44.56124       41.57920       75.33192
C         44.13604       43.61175       76.58482
C         43.96142       42.14846       74.20607
C         43.54299       44.18031       75.45392
C         43.45455       43.44877       74.26623
H         48.13322       41.38473       79.23466
H         47.02082       40.90519       76.60782
H         45.17105       42.33471       78.63420
H         44.80890       40.73354       77.94467
H         44.95361       40.57108       75.27188
H         44.20422       44.19288       77.49605
H         43.89171       41.58114       73.28709
H         43.15344       45.18878       75.49839
H         42.99437       43.89029       73.39197
N         47.92340       43.40770       76.14630
C         48.02460       42.67064       74.89426
C         49.14970       41.65706       74.96564
O         48.95941       40.52921       74.53264
C         48.23245       43.78406       73.85635
C         49.01367       44.83702       74.60610
C         48.35743       44.78752       75.98734
H         47.08405       42.16118       74.60138
H         48.65450       43.45935       72.88074
H         47.23390       44.24012       73.65979
H         50.06197       44.48881       74.66780
H         49.03610       45.84694       74.14461
H         49.09445       45.10508       76.75770
H         47.45553       45.43572       76.03308
N         50.32132       41.96780       75.57916
C         51.42009       41.03408       75.76102
C         52.13873       40.84031       74.43278
O         52.64692       41.82063       73.90570
C         52.38754       41.60459       76.82536
C         51.67542       41.74528       78.19214
C         52.49292       42.45774       79.23355
O         51.96966       42.65097       80.45927
O         53.60371       42.89653       78.97985
H         50.41114       42.89687       76.00824
H         51.02445       40.07960       76.16575
H         52.74444       42.60206       76.48535
H         53.26851       40.93657       76.94637
H         51.41053       40.73331       78.55406
H         50.73380       42.32278       78.09527
N         52.23839       39.63638       73.80030
C         51.66786       38.40571       74.30150
H         50.56634       38.50053       74.38735
H         51.88650       37.57645       73.59525
H         52.10718       38.15233       75.28882
H         52.74542       39.59383       72.90207
Ca        49.29821       23.49231       84.77285
O         50.96497       21.52659       82.79725
H         51.85711       21.40881       82.38467
H         50.60280       20.60822       82.87611
O         50.78725       24.47625       81.85483
H         51.68175       24.83625       81.63182
H         50.38694       24.24432       80.97888
O         50.72946       25.63357       87.00842
H         50.22586       25.52319       86.16164
H         51.20819       26.49077       86.89164
O         52.56799       24.49501       84.57200
H         53.10185       24.52310       85.40375
H         52.92914       25.23608       84.02033

Ca 1.0



