%chk=apoCaM-CA-Ng.loop1.water5.frame575.chk
%nprocshared=20
%mem=10GB
%nosave
#b3lyp/svp scf=(tight,noincore,xqc) Test 
#IOP(5/87=12) Density=Current Pop=(MK,readradii) iop(6/33=2) iop(6/42=6)

apoCaM-CA-Ng.loop1.water5.frame575 

   0  1 
C         68.74829       29.25426       69.83349
C         68.41253       29.41609       71.28675
O         69.30367       29.34576       72.12135
H         69.83659       29.08028       69.69513
H         68.19159       28.38828       69.41766
H         68.45967       30.17184       69.27862
N         67.12420       29.65022       71.66160
C         66.71469       29.83176       73.05560
C         66.90268       28.51521       73.83359
O         67.29585       27.52625       73.22868
C         65.23297       30.30366       73.07139
C         64.76875       31.02290       74.31472
O         63.60014       31.36420       74.40004
O         65.63065       31.40477       75.27681
H         66.41730       29.73089       70.91298
H         67.34491       30.64424       73.48002
H         64.57765       29.43272       72.85036
H         65.08141       31.05136       72.26146
N         66.61374       28.41294       75.16378
C         66.71675       27.17396       75.92749
C         65.33108       26.74661       76.36425
O         64.59644       27.55259       76.92001
C         67.64374       27.35500       77.14578
C         67.73836       26.04277       77.95090
C         68.70529       26.14373       79.13304
C         68.70229       24.87070       80.00313
N         69.11869       23.67702       79.26256
H         66.27258       29.23260       75.67235
H         67.16036       26.36196       75.30995
H         67.26410       28.16887       77.80224
H         68.65560       27.63820       76.78111
H         68.07556       25.23413       77.26847
H         66.73355       25.78377       78.34806
H         68.39750       26.99462       79.77897
H         69.73263       26.34187       78.75742
H         67.68649       24.70628       80.42888
H         69.40338       25.03185       80.85105
H         68.40561       23.41878       78.54346
H         70.04791       23.83343       78.81037
H         69.20427       22.87802       79.92975
N         64.92762       25.45922       76.17023
C         63.59377       24.98579       76.50792
C         63.61588       23.47147       76.74079
O         64.04225       22.76039       75.84122
C         62.65359       25.35531       75.34379
C         61.24314       24.90076       75.57370
O         60.72659       24.11190       74.80009
O         60.53625       25.37154       76.61830
H         65.59485       24.79364       75.75008
H         63.24429       25.50897       77.41774
H         63.03995       24.89606       74.40618
H         62.64628       26.45807       75.20357
N         63.15605       22.86855       77.88294
C         62.50636       23.55592       78.98786
C         63.49110       24.06621       80.01642
O         64.41768       24.77893       79.65919
H         63.15525       21.83659       77.91140
H         61.79982       22.85240       79.47832
H         61.86111       24.37177       78.61145
N         63.29527       23.78684       81.34142
C         64.13990       24.30082       82.41641
C         64.61126       23.16595       83.32578
O         64.16183       22.03892       83.17615
C         63.30524       25.34234       83.19666
C         64.06530       26.07581       84.26369
O         65.03562       26.75654       83.97086
O         63.66967       25.99679       85.54864
H         62.46184       23.24154       81.61199
H         65.03423       24.80234       81.98585
H         62.42564       24.83436       83.65032
H         62.92864       26.10478       82.48058
N         65.53248       23.40361       84.30244
C         66.01200       22.39472       85.23055
C         66.69852       21.26901       84.51172
O         66.33995       20.11845       84.72557
H         65.93447       24.34489       84.39842
H         65.17242       22.01211       85.85181
H         66.75495       22.86489       85.91083
N         67.69187       21.53779       83.62133
C         68.41839       20.50599       82.89684
C         68.03499       20.55150       81.42804
O         67.31749       21.45437       81.01198
C         69.94541       20.72841       83.08804
C         70.34780       20.74864       84.56580
O         70.67676       19.71978       82.44073
H         67.92804       22.52433       83.42672
H         68.13829       19.49770       83.27635
H         70.19448       21.72303       82.64392
H         71.54532       20.11614       82.16725
H         69.82432       21.56372       85.10817
H         70.10954       19.77679       85.04650
H         71.44048       20.93255       84.64982
N         68.47365       19.58334       80.58056
C         68.19931       19.57895       79.14952
C         66.69927       19.50281       78.90706
O         66.18571       20.35618       78.19791
C         68.99576       18.44863       78.42829
C         70.53307       18.52932       78.69913
C         68.73227       18.47525       76.91097
C         71.19353       19.87081       78.35174
H         69.02744       18.81299       80.97883
H         68.55958       20.53697       78.71450
H         68.64927       17.46095       78.80612
H         71.04208       17.72387       78.12691
H         70.74880       18.32839       79.76757
H         69.30245       17.66497       76.40841
H         67.65651       18.30965       76.69592
H         69.02876       19.44837       76.46730
H         72.28076       19.81162       78.56953
H         71.07001       20.11999       77.27920
H         70.78114       20.69261       78.97365
N         65.92423       18.56697       79.53359
C         64.46354       18.57442       79.43350
C         63.88553       17.18134       79.23757
O         64.61336       16.19975       79.24386
C         63.85319       19.28799       80.66528
C         64.18320       18.61880       82.00081
O         64.32106       20.61167       80.69379
H         66.37338       17.91968       80.19828
H         64.15014       19.16367       78.54328
H         62.74203       19.28348       80.56116
H         63.52747       21.20415       80.72904
H         63.68734       19.17837       82.82276
H         63.81215       17.57306       82.01668
H         65.27702       18.62784       82.18843
N         62.54195       17.05198       79.03821
C         61.84480       15.79719       78.81015
C         61.28985       15.85802       77.39374
O         62.09053       15.71867       76.47886
C         60.82784       15.55482       79.96247
C         60.06292       14.23199       79.78912
O         59.93582       16.63300       80.09095
H         61.96459       17.90550       79.01294
H         62.54426       14.93151       78.84440
H         61.42630       15.48472       80.90083
H         59.46176       16.51819       80.95581
H         59.39169       14.06653       80.65837
H         59.44126       14.23185       78.87093
H         60.77521       13.38195       79.73401
N         59.98610       16.15953       77.11715
C         59.47568       16.32159       75.75969
C         59.07634       17.76393       75.52779
O         58.91205       18.50257       76.49088
C         58.28283       15.36573       75.51431
C         57.03899       15.72632       76.35834
C         55.91181       14.70201       76.20729
C         54.68410       15.14063       77.02260
N         53.62651       14.13325       76.97159
H         59.33616       16.34531       77.88548
H         60.27713       16.07610       75.02974
H         58.61515       14.33115       75.75004
H         57.99536       15.39938       74.44053
H         56.66674       16.72640       76.04462
H         57.29691       15.76776       77.43535
H         56.27289       13.71846       76.58010
H         55.62592       14.59979       75.13799
H         54.29865       16.10337       76.61712
H         54.97423       15.30265       78.08505
H         53.96358       13.24315       77.40552
H         52.80074       14.47882       77.51245
H         53.33761       13.95940       75.98201
N         58.90912       18.23807       74.26146
C         58.45435       19.59594       73.98476
C         59.31711       20.63143       74.71310
O         58.75045       21.37179       75.50367
C         58.35830       19.85918       72.45342
C         57.49299       21.07880       72.08080
C         57.97298       22.35870       72.69226
O         57.18060       22.99459       73.57603
O         59.08283       22.79775       72.43534
H         59.09836       17.60150       73.47140
H         57.41559       19.66375       74.38205
H         57.85942       18.98680       71.97696
H         59.36173       19.95501       71.99399
H         56.45535       20.88680       72.43143
H         57.46426       21.18844       70.97525
N         60.66835       20.77065       74.56225
C         61.53016       19.95703       73.73110
H         62.30655       19.48716       74.37063
H         61.00209       19.14592       73.20458
H         62.03108       20.60433       72.98135
H         61.13818       21.51108       75.10601
Ca        57.91685       24.70433       74.84222
O         58.32732       23.19444       78.10060
H         57.61737       23.55768       78.68743
H         58.32146       22.22078       78.28023
O         55.22848       25.83700       74.23841
H         55.29457       26.42962       75.02879
H         55.91007       26.18615       73.61037
O         58.89893       27.26277       73.68873
H         59.43725       27.19747       74.51734
H         59.21953       26.51386       73.12539
O         55.70822       22.45922       76.12622
H         54.73949       22.25608       76.13858
H         56.14668       21.57785       76.23115
O         56.79483       25.95042       77.36932
H         56.05957       25.72175       77.99160
H         57.20462       26.76549       77.75355

Ca 1.0



