%chk=apoCaM-CA-Ng.loop1.water4.frame94.chk
%nprocshared=20
%mem=10GB
%nosave
#b3lyp/svp scf=(tight,noincore,xqc) Test 
#IOP(5/87=12) Density=Current Pop=(MK,readradii) iop(6/33=2) iop(6/42=6)

apoCaM-CA-Ng.loop1.water4.frame94 

   0  1 
C         57.11307       51.72870      116.55878
C         57.22050       50.41980      117.28013
O         56.54907       50.23441      118.28281
H         56.39164       52.40221      117.06844
H         58.10767       52.22085      116.53218
H         56.76465       51.55246      115.51921
N         58.05733       49.45361      116.80816
C         58.19976       48.12720      117.40594
C         58.78379       48.11539      118.82674
O         58.92783       47.03303      119.36286
C         59.03353       47.19952      116.47847
C         60.47927       47.59999      116.32149
O         60.78285       48.67273      115.82551
O         61.45286       46.74980      116.70001
H         58.56612       49.66663      115.93728
H         57.19340       47.66877      117.44777
H         58.56043       47.16677      115.47265
H         59.00159       46.16523      116.88645
N         59.18297       49.24799      119.48335
C         59.88824       49.21449      120.76956
C         59.23056       50.10411      121.82003
O         58.77094       51.17136      121.44591
C         61.30559       49.76168      120.51808
C         62.10197       48.84489      119.57781
C         63.50669       49.37209      119.26329
C         63.47624       50.70270      118.49128
N         64.82206       51.10712      118.09339
H         59.08650       50.16178      119.02635
H         59.96561       48.18510      121.15101
H         61.86783       49.85694      121.46446
H         61.20546       50.77984      120.08931
H         61.56008       48.71704      118.62063
H         62.19822       47.84563      120.05734
H         64.00988       48.60943      118.63022
H         64.09001       49.48645      120.20309
H         63.03671       51.50536      119.12027
H         62.84872       50.58658      117.57924
H         65.42568       51.22879      118.93851
H         65.23764       50.38687      117.45911
H         64.76531       52.01651      117.58036
N         59.27118       49.85597      123.17575
C         59.76551       48.66507      123.87280
C         61.17532       48.25241      123.46482
O         61.33231       47.20222      122.86137
C         58.75503       47.49737      123.78327
C         57.45344       47.77464      124.49825
O         57.22816       48.85918      125.01255
O         56.54678       46.78890      124.63063
H         58.90855       50.60401      123.78864
H         59.81390       48.87551      124.96463
H         59.20199       46.63570      124.31668
H         58.56583       47.20018      122.73279
N         62.28578       48.96736      123.79148
C         62.28785       50.16725      124.61793
C         63.70612       50.61509      124.94816
O         64.65342       50.06477      124.40138
H         63.18112       48.56843      123.46887
H         61.79609       49.92313      125.58126
H         61.72199       50.98578      124.12501
N         63.98209       51.56558      125.88180
C         62.99448       52.30670      126.65671
C         62.76486       51.65343      128.01087
O         63.71628       51.43649      128.74680
C         63.41611       53.79448      126.78743
C         64.73270       54.09740      127.47791
O         65.11772       55.38042      127.60832
O         65.45855       53.21860      127.91381
H         64.97828       51.72227      126.09184
H         62.02335       52.32126      126.11763
H         62.61667       54.33105      127.34238
H         63.47318       54.22772      125.76587
N         61.50045       51.33260      128.41970
C         61.22848       50.74770      129.72361
C         61.80613       49.36211      129.80578
O         62.72127       49.13847      130.58614
H         60.69862       51.54850      127.80863
H         60.13199       50.68124      129.89357
H         61.65745       51.40744      130.50957
N         61.31463       48.37986      129.00183
C         61.88635       47.03942      128.91551
C         62.36215       46.82727      127.48400
O         62.12357       47.69866      126.65882
C         60.83406       45.98163      129.34109
C         60.27428       46.27652      130.74097
O         61.42122       44.70626      129.34649
H         60.51367       48.60484      128.38866
H         62.76741       46.95316      129.58929
H         59.99336       46.00607      128.60854
H         60.68358       44.04442      129.40325
H         61.08924       46.28062      131.49553
H         59.75630       47.25856      130.75963
H         59.53128       45.49992      131.02258
N         63.05301       45.71541      127.10223
C         63.48821       45.51079      125.72040
C         62.79260       44.28505      125.14761
O         63.43188       43.41289      124.57677
C         65.04683       45.50131      125.62760
C         65.69310       44.34310      126.44006
C         65.58966       46.87002      126.09019
C         67.20686       44.23445      126.24645
H         63.27448       44.99257      127.80107
H         63.14052       46.34884      125.07767
H         65.31320       45.37566      124.55449
H         65.26879       43.37361      126.11519
H         65.48308       44.45861      127.52407
H         65.37662       47.03778      127.16834
H         66.68289       46.95180      125.93096
H         65.11758       47.68747      125.50797
H         67.58494       43.35021      126.80159
H         67.44889       44.10637      125.17000
H         67.73392       45.12564      126.64142
N         61.44428       44.15635      125.29935
C         60.69997       42.97850      124.86262
C         60.47470       42.96117      123.35379
O         60.47695       41.88760      122.77035
C         59.38875       42.80536      125.66889
C         58.35227       43.91172      125.43185
O         59.71628       42.75123      127.03593
H         60.95233       44.88459      125.83706
H         61.29832       42.07847      125.13372
H         58.94070       41.83229      125.36228
H         58.90266       42.46676      127.52745
H         58.07320       43.97298      124.36081
H         57.43552       43.67415      126.00800
H         58.72161       44.89583      125.78010
N         60.28002       44.12536      122.66532
C         60.09362       44.26333      121.21606
C         58.78952       43.61256      120.73819
O         58.17980       42.88746      121.51261
C         61.33177       43.72028      120.44277
C         62.67341       44.21781      120.99783
O         61.25887       44.04621      119.08370
H         60.29215       44.99802      123.20481
H         60.00909       45.35499      121.02185
H         61.34422       42.61234      120.52555
H         61.28521       45.03572      119.00516
H         62.80743       43.90249      122.05090
H         63.50259       43.77207      120.40662
H         62.74083       45.32355      120.93703
N         58.26779       43.86284      119.49126
C         57.03953       43.22129      119.00908
C         55.82575       44.14672      119.04064
O         54.73912       43.67622      118.73304
C         57.18502       42.62652      117.57835
C         58.38474       41.68353      117.37579
C         59.61139       42.41652      116.81053
C         60.84246       41.50124      116.77676
N         61.98747       42.17727      116.16553
H         58.72716       44.55613      118.88536
H         56.78759       42.37538      119.68507
H         57.18953       43.41430      116.79107
H         56.26471       42.02238      117.41862
H         58.12022       40.92579      116.60546
H         58.59532       41.14478      118.32485
H         59.84276       43.30664      117.40509
H         59.37348       42.76828      115.78156
H         60.61457       40.57870      116.19888
H         61.10125       41.20998      117.81954
H         62.81971       41.54545      116.20768
H         61.78033       42.39444      115.16352
H         62.20903       43.06123      116.67834
N         55.91100       45.45621      119.41248
C         54.75000       46.34423      119.45600
C         54.13666       46.48230      118.07347
O         54.81691       46.92520      117.15880
C         55.14987       47.75034      119.95859
C         55.70074       47.81379      121.39014
C         54.64558       47.56521      122.42685
O         54.09912       46.47869      122.51982
O         54.31851       48.54944      123.28433
H         56.82589       45.83351      119.67947
H         53.99260       45.92006      120.14560
H         54.28320       48.44538      119.88951
H         55.93922       48.12604      119.28858
H         56.09219       48.84273      121.54865
H         56.54655       47.11172      121.52883
N         52.83873       46.12750      117.85785
C         52.18087       46.25179      116.57235
H         51.30514       46.92670      116.67305
H         52.85037       46.66642      115.78938
H         51.82992       45.25289      116.24036
H         52.27914       45.75654      118.64015
Ca        54.68614       47.18753      125.85809
O         52.66784       44.99914      125.24668
H         52.40370       45.34642      124.35799
H         53.26187       44.23242      125.04758
O         56.02656       48.20034      128.63119
H         56.96104       48.29244      128.94528
H         55.75246       47.29694      128.92948
O         55.57895       44.81741      127.41907
H         56.34265       44.93146      128.03898
H         54.81323       44.58746      128.00231
O         51.73565       48.42046      124.79883
H         51.95214       49.25615      124.31373
H         51.09907       47.94828      124.20555

Ca 1.0



