%chk=apoCaM-CA-Ng.loop2.water3.frame418.chk
%nprocshared=20
%mem=10GB
%nosave
#b3lyp/svp scf=(tight,noincore,xqc) Test 
#IOP(5/87=12) Density=Current Pop=(MK,readradii) iop(6/33=2) iop(6/42=6)

apoCaM-CA-Ng.loop2.water3.frame418 

   -2  1 
C         95.72931      105.14249       74.73856
C         96.08303      105.37149       73.29884
O         97.13023      104.91418       72.86331
H         94.76299      104.60182       74.80737
H         96.51478      104.54413       75.24875
H         95.63972      106.12079       75.25745
N         95.25247      106.10405       72.50375
C         95.54886      106.43619       71.11531
C         95.73470      107.93723       71.04727
O         94.81089      108.67333       71.36739
C         94.42135      105.93050       70.20003
C         94.68975      106.14504       68.73209
O         93.86723      105.76894       67.91311
O         95.82699      106.72824       68.30316
H         94.38708      106.48387       72.91936
H         96.48979      105.93380       70.79866
H         93.46755      106.43098       70.47502
H         94.30154      104.83741       70.36498
N         96.96433      108.44824       70.76357
C         97.32449      109.82796       71.05044
C         98.00201      109.89801       72.41870
O         98.42322      110.97525       72.81529
C         98.25235      110.35072       69.94984
H         97.73508      107.78987       70.56538
H         96.42380      110.47951       71.08433
H         97.74120      110.29915       68.96532
H         98.52903      111.40870       70.14609
H         99.18236      109.74313       69.90350
N         98.13322      108.77728       73.19704
C         98.80034      108.70650       74.48413
C        100.26714      109.05138       74.31144
O        100.80802      109.88162       75.02898
C         98.03576      109.52162       75.55211
C         98.49728      109.26759       76.96481
O         97.88035      109.89875       77.98142
O         99.39863      108.48000       77.20765
H         97.76932      107.87397       72.86870
H         98.75832      107.63881       74.80302
H         96.96409      109.22644       75.51063
H         98.10600      110.60666       75.33110
N        100.96797      108.42189       73.32784
C        102.38471      108.60212       73.09240
C        103.17522      107.99807       74.21855
O        104.01503      108.67640       74.79276
H        100.47121      107.76721       72.70424
H        102.62656      109.67659       72.93116
H        102.66092      108.04713       72.17041
N        102.92815      106.70997       74.59890
C        103.64260      106.03566       75.67195
C        104.13463      104.68227       75.17182
O        103.32277      103.84676       74.79810
C        102.71675      105.94082       76.90033
C        103.39577      105.41661       78.14515
N        102.75374      105.47302       79.33417
O        104.53089      104.96611       78.09767
H        102.16303      106.19773       74.13182
H        104.51130      106.65489       75.98647
H        101.81124      105.33611       76.67372
H        102.38358      106.97804       77.12851
H        101.81130      105.88029       79.40465
H        103.20640      105.12818       80.19280
N        105.47046      104.42748       75.08712
C        106.03185      103.21535       74.50830
C        105.82518      101.98226       75.35793
O        106.27546      101.97960       76.49425
H        106.13217      105.16361       75.37643
H        107.13272      103.34770       74.42748
H        105.63796      103.07754       73.47911
N        105.19670      100.87598       74.85353
C        105.10592       99.60857       75.58850
C        103.72505       99.37425       76.17511
O        103.58662       98.44749       76.96630
C        105.57559       98.40862       74.71769
C        104.67301       98.11631       73.50331
O        106.90938       98.58206       74.30887
H        104.78386      100.93240       73.91181
H        105.78179       99.65684       76.46973
H        105.54522       97.49684       75.35428
H        106.92687       99.29692       73.62013
H        104.66221       98.96101       72.78463
H        105.04263       97.21557       72.96854
H        103.63485       97.91211       73.83019
N        102.67101      100.18021       75.88038
C        101.37151      100.09796       76.53166
C        101.12924      101.41948       77.21820
O        101.24936      102.46348       76.58551
C        100.25936       99.73724       75.51293
C        100.45059       98.30449       74.94081
C         98.85311       99.88470       76.12839
C        100.35929       97.16301       75.96984
H        102.79015      100.92989       75.18104
H        101.36100       99.31885       77.32062
H        100.31487      100.45380       74.66319
H        101.43517       98.24061       74.43777
H         99.67177       98.12581       74.16898
H         98.73500       99.25269       77.03254
H         98.66448      100.93787       76.42333
H         98.07745       99.60919       75.38351
H        101.15485       97.22796       76.73803
H         99.37106       97.14865       76.47302
H        100.48626       96.18948       75.45308
N        100.77468      101.44297       78.52961
C        100.58355      102.67356       79.27719
C        101.01896      102.48370       80.74163
O        100.65083      103.28010       81.59088
C         99.11643      103.12536       79.08058
C         98.93910      104.61328       79.21806
O         98.04348      105.13855       80.06738
O         99.55522      105.36230       78.47680
H        100.55930      100.54474       78.99286
H        101.23222      103.45278       78.82872
H         98.43071      102.54087       79.73109
H         98.82539      102.92535       78.02572
N        101.83469      101.43371       81.08719
C        102.25363      101.07701       82.44140
C        101.05131      100.63540       83.26499
O        100.30630       99.79370       82.77556
C        103.21703       99.86157       82.36163
C        103.73060       99.44212       83.71715
C        104.77355      100.15344       84.33221
C        103.16607       98.33766       84.37941
C        105.24672       99.76153       85.58883
C        103.63103       97.95960       85.64176
C        104.67300       98.66850       86.24471
H        102.19979      100.83250       80.33690
H        102.80293      101.92471       82.90123
H        104.08450      100.07075       81.69798
H        102.66650       99.01309       81.89513
H        105.22472      101.00253       83.83425
H        102.35449       97.78095       83.92723
H        106.05707      100.30617       86.05541
H        103.18289       97.11691       86.15234
H        105.03541       98.37053       87.21998
N        100.82227      101.06123       84.54530
C         99.75747      100.52209       85.37306
C         98.40052      101.11061       85.02964
O         97.41823      100.67143       85.60914
C        100.20933      100.87262       86.79289
C        100.87949      102.21582       86.57904
C        101.66614      101.97393       85.29089
H         99.69926       99.41328       85.28430
H         99.41548      100.83781       87.56956
H        101.01387      100.15842       87.08591
H        100.07435      102.95543       86.36780
H        101.49193      102.58868       87.42717
H        101.83493      102.94076       84.77178
H        102.63115      101.46695       85.49893
N         98.26203      102.11094       84.11095
C         96.96194      102.66314       83.75286
C         96.15406      101.69376       82.89451
O         95.00299      102.00069       82.61375
C         97.13186      103.99177       82.99028
C         97.85249      105.06095       83.83137
C         97.95892      106.35700       83.08459
O         96.94953      106.95516       82.74738
O         99.16875      106.87584       82.79859
H         99.10062      102.51420       83.67454
H         96.39881      102.88473       84.68711
H         96.12687      104.38145       82.71414
H         97.70614      103.79440       82.06288
H         98.87519      104.71839       84.09427
H         97.29154      105.24253       84.77286
N         96.68404      100.52703       82.41804
C         95.95279       99.59731       81.58158
H         94.91416       99.93148       81.37862
H         96.48092       99.48665       80.61090
H         95.91287       98.60728       82.08184
H         97.65754      100.27140       82.62926
Ca        97.77022      107.38053       79.97756
O         97.37106      110.08993       81.40563
H         96.39459      109.95709       81.30947
H         97.53267      111.00322       81.05932
O         94.95229      108.04315       79.00412
H         94.79879      108.48547       79.87658
H         94.58765      107.13017       79.12217
O        100.66593      108.74333       79.86010
H        100.70950      109.67120       79.51658
H        101.49734      108.63245       80.38556

Ca 1.0



