%chk=apoCaM-CA-Ng.loop4.water6.frame861.chk
%nprocshared=20
%mem=10GB
%nosave
#b3lyp/svp scf=(tight,noincore,xqc) Test 
#IOP(5/87=12) Density=Current Pop=(MK,readradii) iop(6/33=2) iop(6/42=6)

apoCaM-CA-Ng.loop4.water6.frame861 

   -3  1 
C         66.84587       78.04712       66.77079
C         67.14668       78.90666       65.58056
O         68.28785       78.94678       65.14336
H         66.07099       77.29812       66.50273
H         67.75390       77.50357       67.10078
H         66.47236       78.67853       67.60386
N         66.13970       79.60395       64.98172
C         66.29735       80.43133       63.78981
C         66.88005       79.58853       62.66343
O         67.89556       79.94890       62.08252
C         67.13372       81.69176       64.12448
C         67.17806       82.72272       63.02438
O         67.87370       83.85905       63.21769
O         66.58350       82.55713       61.97039
H         65.18766       79.51069       65.36902
H         65.28089       80.77039       63.48806
H         68.17351       81.39709       64.38139
H         66.68641       82.18507       65.01419
N         66.31606       78.38335       62.37336
C         66.92131       77.44481       61.43272
C         66.79757       77.92775       59.98732
O         65.81103       78.58571       59.68747
C         66.35044       75.99858       61.59449
C         64.81659       75.92324       61.33527
C         66.73382       75.44748       62.98250
C         64.24301       74.50693       61.41777
H         65.50303       78.09412       62.93382
H         67.98686       77.40151       61.72133
H         66.85832       75.35174       60.84681
H         64.60237       76.30467       60.31507
H         64.25559       76.54794       62.05940
H         67.83587       75.49659       63.11719
H         66.25098       76.02508       63.79767
H         66.45429       74.38011       63.08326
H         64.75021       73.83879       60.69126
H         64.34212       74.08979       62.44066
H         63.15824       74.53586       61.18031
N         67.69966       77.61997       58.99933
C         68.95510       76.89200       59.17549
C         70.10549       77.78117       58.71583
O         70.88631       77.38854       57.85842
C         68.88400       75.55226       58.40996
C         70.06874       74.64769       58.65460
O         70.11484       73.55983       58.10428
O         71.06894       75.00792       59.48471
H         67.48705       77.94702       58.04280
H         69.13417       76.64059       60.23056
H         68.78641       75.75354       57.32061
H         67.97778       75.00121       58.73995
N         70.23841       79.03514       59.22761
C         71.28844       79.94532       58.80856
C         72.61862       79.57651       59.42257
O         73.57939       79.33288       58.70732
H         69.53285       79.38218       59.89492
H         71.04697       80.96661       59.17767
H         71.32766       79.99888       57.69814
N         72.74187       79.60952       60.77733
C         74.00210       79.47164       61.50236
C         74.68612       78.12278       61.34045
O         75.83602       78.11095       60.92038
C         73.82315       79.83169       63.00055
C         72.86882       78.96063       63.78535
O         71.69139       78.88367       63.47477
O         73.29897       78.30724       64.88065
H         71.89526       79.85839       61.30727
H         74.69928       80.24476       61.10386
H         73.45619       80.87863       63.06271
H         74.82343       79.80048       63.48723
N         74.08012       76.94972       61.68270
C         74.79499       75.68085       61.65181
C         75.80001       75.53508       62.78888
O         76.53223       74.55626       62.77937
H         73.08981       76.94890       61.96519
H         75.29909       75.57176       60.66586
H         74.07535       74.84059       61.75385
N         75.85312       76.42290       63.83218
C         76.76649       76.33817       64.97248
C         76.59199       75.09327       65.83922
O         77.35356       74.97257       66.78893
C         78.23888       76.51883       64.51932
C         78.52317       77.93651       63.97847
C         78.49137       79.02307       65.04023
N         78.72349       80.30991       64.69521
O         78.28053       78.75139       66.21385
H         75.20807       77.21882       63.83770
H         76.52958       77.17285       65.66421
H         78.48219       75.76501       63.74344
H         78.93942       76.34749       65.36626
H         77.80085       78.17709       63.16954
H         79.54513       77.94395       63.54349
H         78.91308       80.56671       63.71607
H         78.71595       81.05213       65.41151
N         75.60037       74.16927       65.64530
C         75.42562       73.01342       66.53128
C         74.13767       73.09039       67.33574
O         74.01558       72.31901       68.28033
C         75.53289       71.67405       65.75640
C         74.43293       71.51534       64.69227
C         76.91829       71.53185       65.11283
H         74.93142       74.29761       64.87765
H         76.23012       73.00982       67.29889
H         75.41981       70.84157       66.48701
H         74.51989       70.52237       64.20275
H         73.42654       71.57807       65.15748
H         74.51342       72.29310       63.90490
H         77.09290       72.33179       64.36304
H         77.70826       71.59452       65.89162
H         77.00784       70.54653       64.60852
N         73.13984       73.97605       67.04537
C         71.94985       74.13677       67.87223
C         71.83935       75.60265       68.28360
O         72.55803       76.43713       67.74423
C         70.73357       73.59064       67.08514
C         69.45522       73.42445       67.87907
N         68.95441       72.18700       68.12112
O         68.84833       74.40479       68.28027
H         73.20874       74.56862       66.20593
H         72.05567       73.52426       68.79620
H         71.02926       72.57993       66.72730
H         70.53984       74.21334       66.18595
H         69.43845       71.34042       67.78629
H         68.07793       72.06809       68.65082
N         71.01780       75.98343       69.29206
C         70.94722       77.35665       69.78415
C         70.51720       77.32430       71.23007
O         69.52470       76.67251       71.52328
C         69.94502       78.18862       68.96250
C         69.97607       79.63134       69.41565
C         69.02611       80.10568       70.33071
C         70.97912       80.50142       68.95723
C         69.08118       81.42518       70.79230
C         71.02432       81.82643       69.40507
C         70.08133       82.29129       70.32827
O         70.14922       83.56573       70.76452
H         70.51399       75.24060       69.80032
H         71.95103       77.83458       69.72000
H         68.93163       77.75547       69.11138
H         70.16613       78.14614       67.87408
H         68.26234       79.43833       70.69864
H         71.72225       80.15454       68.25030
H         68.35239       81.77343       71.51292
H         71.79792       82.49058       69.04035
H         69.52471       83.92298       71.41224
N         71.20176       78.00969       72.18733
C         70.87208       77.90875       73.59949
C         70.25113       79.21377       74.07893
O         70.99025       80.17382       74.24558
C         72.15399       77.48539       74.35893
C         71.99175       77.21275       75.86189
C         71.75231       78.45773       76.66500
O         72.58048       79.35554       76.66702
O         70.63747       78.57876       77.40905
H         71.98597       78.61982       71.90676
H         70.15345       77.09394       73.74399
H         72.96244       78.23449       74.20246
H         72.49725       76.53330       73.89585
H         72.93688       76.76037       76.23492
H         71.17298       76.47866       76.01890
N         68.90139       79.38496       74.27439
C         67.86302       78.40637       73.93554
C         67.91726       77.16383       74.80163
O         67.90657       77.27696       76.01920
C         66.42831       78.98107       74.01862
C         66.20885       80.20259       73.11249
C         64.74665       80.42494       72.84986
O         63.87395       80.61506       73.85405
O         64.33029       80.39227       71.70216
H         68.59266       80.31505       74.59584
H         67.99164       78.12843       72.86889
H         66.13510       79.23280       75.06147
H         65.75787       78.16599       73.65924
H         66.68097       80.02164       72.13000
H         66.66978       81.10611       73.56411
N         67.93280       75.93216       74.21428
C         67.97828       74.68489       74.94504
H         68.02805       74.83940       76.04198
H         67.07091       74.09009       74.70781
H         68.87345       74.11073       74.62570
H         67.89234       75.86306       73.18774
Ca        61.70160       80.72172       73.23105
O         61.05742       81.20324       75.96271
H         60.69519       80.40209       76.41754
H         61.35182       81.80013       76.69483
O         60.82230       81.97562       70.35811
H         61.34036       82.81845       70.40143
H         61.16618       81.51333       69.55293
O         58.66924       80.04047       72.92076
H         58.34730       80.87844       72.50383
H         57.87834       79.67862       73.39361
O         59.78381       83.15468       73.12210
H         59.08250       83.45024       72.48883
H         59.98589       83.95781       73.66404
O         60.82755       78.03684       74.51308
H         61.36191       77.58776       73.81075
H         59.88724       77.84068       74.27312
O         62.99027       83.44976       73.13407
H         62.53685       84.32622       73.20832
H         63.53282       83.37972       73.95937

Ca 1.0



