%chk=apoCaM-CA-Ng.loop2.water4.frame404.chk
%nprocshared=20
%mem=10GB
%nosave
#b3lyp/svp scf=(tight,noincore,xqc) Test 
#IOP(5/87=12) Density=Current Pop=(MK,readradii) iop(6/33=2) iop(6/42=6)

apoCaM-CA-Ng.loop2.water4.frame404 

   -2  1 
C        -13.50668       92.42469       13.02435
C        -14.99972       92.25339       13.08311
O        -15.61199       91.96816       12.06423
H        -13.13241       92.29737       11.98657
H        -13.21089       93.43095       13.38137
H        -13.02175       91.67335       13.67999
N        -15.65267       92.43244       14.26365
C        -17.09174       92.27465       14.44062
C        -17.69557       93.62377       14.74584
O        -17.19862       94.31891       15.62287
C        -17.36627       91.28218       15.58258
C        -18.84261       91.10489       15.82155
O        -19.56618       90.68262       14.93337
O        -19.37376       91.42200       17.01784
H        -15.09746       92.71825       15.08604
H        -17.56658       91.86980       13.51875
H        -16.88716       91.64840       16.51688
H        -16.92445       90.29538       15.32651
N        -18.78761       94.06073       14.05635
C        -19.32183       95.40153       14.24296
C        -18.35566       96.40657       13.65796
O        -17.40256       96.00585       13.00574
C        -20.68099       95.53804       13.54039
H        -19.23823       93.42915       13.37538
H        -19.47104       95.58907       15.32875
H        -20.58191       95.34774       12.44935
H        -21.39963       94.80727       13.96727
H        -21.10314       96.55517       13.68360
N        -18.58297       97.73995       13.78427
C        -17.77250       98.73432       13.10048
C        -18.68612       99.28012       12.00824
O        -19.01878      100.45716       11.99340
C        -17.27774       99.81366       14.09948
C        -16.89017       99.29121       15.47487
O        -15.83210       98.49408       15.74490
O        -17.59345       99.61511       16.41866
H        -19.41262       98.06156       14.30559
H        -16.87886       98.26765       12.62790
H        -18.13670      100.49299       14.28930
H        -16.46992      100.42811       13.64472
N        -19.21773       98.39897       11.10963
C        -20.28908       98.70687       10.17659
C        -19.94106       99.83466        9.25645
O        -20.70424      100.78585        9.16128
H        -18.89123       97.42079       11.12382
H        -21.21711       98.95001       10.73898
H        -20.49259       97.80104        9.56407
N        -18.76974       99.80590        8.57419
C        -18.33337      100.87297        7.69117
C        -17.87522      100.26227        6.38065
O        -18.41919      100.59624        5.33737
C        -17.21218      101.65791        8.39536
C        -16.82571      102.90608        7.64719
N        -17.72358      103.90406        7.46241
O        -15.68562      103.03017        7.22738
H        -18.13220       99.01520        8.75027
H        -19.17185      101.57989        7.50151
H        -16.32933      101.00049        8.54635
H        -17.56846      101.97404        9.40076
H        -18.68387      103.82870        7.82984
H        -17.45540      104.76560        6.96507
N        -16.88966       99.31684        6.38597
C        -16.42083       98.60152        5.21501
C        -14.92964       98.76739        5.02774
O        -14.30190       99.54792        5.73093
H        -16.46067       99.04604        7.28207
H        -16.94217       98.93215        4.28923
H        -16.64012       97.52361        5.36544
N        -14.30213       98.06115        4.04728
C        -12.89944       98.26388        3.68425
C        -11.87801       97.84382        4.74864
O        -10.70987       98.13766        4.53581
C        -12.57169       97.58085        2.32598
C        -12.59424       96.04323        2.37920
O        -13.42021       98.06803        1.31262
H        -14.88607       97.42816        3.48156
H        -12.77195       99.35765        3.51983
H        -11.53695       97.86445        2.03510
H        -14.27555       97.56557        1.34123
H        -11.81733       95.68108        3.07641
H        -13.58342       95.65644        2.70148
H        -12.35860       95.62907        1.37706
N        -12.20603       97.16803        5.89311
C        -11.21224       96.79438        6.91252
C        -11.49993       97.56871        8.19083
O        -12.56013       98.17279        8.29340
C        -11.22524       95.23439        7.11837
C        -10.92084       94.46481        5.80732
C        -10.29605       94.71982        8.23629
C         -9.51961       94.69599        5.22731
H        -13.19037       96.91516        6.06639
H        -10.19777       97.11476        6.59894
H        -12.25731       94.94452        7.41858
H        -11.67790       94.73748        5.05083
H        -11.03810       93.37416        5.99182
H         -9.24229       95.02081        8.06190
H        -10.62489       95.08485        9.22799
H        -10.34250       93.61124        8.29603
H         -9.35468       95.76224        4.97708
H         -8.73297       94.35944        5.93353
H         -9.40750       94.10580        4.29391
N        -10.58396       97.61231        9.20658
C        -10.84301       98.27467       10.47681
C         -9.78099       99.31799       10.82874
O         -9.80342       99.82654       11.94115
C        -10.97787       97.19123       11.57009
C        -11.74696       97.69080       12.76731
O        -12.15713       96.83587       13.71326
O        -12.13816       98.84534       12.82837
H         -9.68329       97.12352        9.10087
H        -11.82438       98.79336       10.42514
H         -9.99058       96.75689       11.84296
H        -11.60807       96.37291       11.15811
N         -8.85218       99.73889        9.92262
C         -7.86780      100.76621       10.24521
C         -6.76290      100.17689       11.11439
O         -6.14906       99.21985       10.66207
C         -7.21819      101.30932        8.95272
C         -6.33124      102.48982        9.26668
C         -6.90371      103.70481        9.68377
C         -4.93452      102.38720        9.16523
C         -6.09167      104.79764        9.99516
C         -4.12474      103.48086        9.48828
C         -4.70269      104.68494        9.90129
H         -8.88660       99.37671        8.95842
H         -8.39381      101.61831       10.72612
H         -7.99258      101.63821        8.22588
H         -6.64056      100.49063        8.46798
H         -7.97918      103.80576        9.76456
H         -4.47260      101.45830        8.85530
H         -6.54028      105.73019       10.31255
H         -3.04832      103.39420        9.42154
H         -4.07491      105.53058       10.14954
N         -6.38095      100.70059       12.32066
C         -5.22321      100.20813       13.04958
C         -5.49012       98.89093       13.76094
O         -4.52432       98.23551       14.12755
C         -4.89392      101.35715       14.00514
C         -6.27313      101.89950       14.32537
C         -6.95271      101.87019       12.95385
H         -4.35688      100.06911       12.36292
H         -4.25220      101.08920       14.87184
H         -4.37339      102.15218       13.42153
H         -6.77182      101.15481       14.98546
H         -6.29527      102.88942       14.82854
H         -8.05311      101.80399       13.08737
H         -6.68503      102.76172       12.34738
N         -6.75456       98.43356       14.00300
C         -7.00537       97.12799       14.61202
C         -6.68375       95.98769       13.65458
O         -6.66908       94.84810       14.10047
C         -8.47752       97.00809       15.05981
C         -8.76606       97.89154       16.28205
C        -10.21805       97.83909       16.65553
O        -11.06097       98.28664       15.89616
O        -10.59762       97.31863       17.83785
H         -7.55861       99.03149       13.76157
H         -6.35597       97.01687       15.51039
H         -8.70359       95.96029       15.35899
H         -9.13686       97.27209       14.20398
H         -8.48778       98.94905       16.09134
H         -8.15523       97.51496       17.13284
N         -6.44541       96.19635       12.32927
C         -6.14765       95.11144       11.42131
H         -5.20509       94.61093       11.72800
H         -6.97967       94.37558       11.42220
H         -6.02395       95.50543       10.38995
H         -6.49712       97.14221       11.93481
Ca       -13.97142       97.67815       14.76683
O        -13.84732       95.42183       16.87441
H        -14.78712       95.37582       17.18302
H        -13.53684       94.48197       16.87897
O        -14.58908       95.41431       13.13410
H        -15.17785       95.49364       13.92628
H        -14.86060       96.14496       12.52514
O        -13.39768      100.75221       14.96736
H        -12.41448      100.82680       15.05889
H        -13.55763      100.75447       13.99017
O        -13.83684       98.41475       17.96988
H        -14.55665       97.84011       18.33369
H        -13.23158       98.57093       18.73727

Ca 1.0



