%chk=apoCaM-CA-Ng.loop2.water3.frame335.chk
%nprocshared=20
%mem=10GB
%nosave
#b3lyp/svp scf=(tight,noincore,xqc) Test 
#IOP(5/87=12) Density=Current Pop=(MK,readradii) iop(6/33=2) iop(6/42=6)

apoCaM-CA-Ng.loop2.water3.frame335 

   -2  1 
C         69.49351       91.06865       58.56467
C         69.64306       92.37641       59.28691
O         69.09014       92.53355       60.36573
H         70.49218       90.60216       58.43179
H         68.84475       90.37044       59.13527
H         69.03908       91.24050       57.56578
N         70.37346       93.37626       58.72247
C         70.57006       94.68971       59.32550
C         69.84074       95.69752       58.46658
O         70.08413       95.73887       57.26687
C         72.08050       94.97925       59.42598
C         72.41996       96.28736       60.09564
O         71.55011       97.03775       60.51009
O         73.71285       96.62870       60.25055
H         70.79074       93.20619       57.79298
H         70.14744       94.71736       60.35407
H         72.52981       94.97116       58.40906
H         72.55248       94.16691       60.02034
N         68.87165       96.50062       59.00135
C         67.98569       97.28409       58.14907
C         67.08941       96.35223       57.34081
O         66.51390       96.79429       56.35686
C         67.12920       98.24996       58.96881
H         68.71658       96.49791       60.02124
H         68.61830       97.88863       57.46039
H         66.48726       97.69253       59.68370
H         67.78659       98.94211       59.53712
H         66.48305       98.85491       58.29702
N         66.95044       95.03485       57.69489
C         66.29172       94.01097       56.89903
C         64.77860       94.17742       56.77441
O         64.16354       93.35743       56.10744
C         67.02853       93.89065       55.54292
C         66.73456       92.59309       54.85585
O         66.26799       92.55735       53.72938
O         67.03073       91.46103       55.51383
H         67.39799       94.69087       58.55643
H         66.44342       93.04813       57.44080
H         68.12322       93.87570       55.74702
H         66.80869       94.75832       54.88817
N         64.09109       95.16379       57.42424
C         62.64312       95.30362       57.34905
C         61.86203       94.18708       58.02924
O         60.64161       94.25577       57.99647
H         64.59449       95.85924       57.99075
H         62.34047       95.38210       56.28182
H         62.35024       96.24927       57.85443
N         62.46966       93.14051       58.66395
C         61.74620       92.05854       59.32276
C         62.22793       91.92418       60.75971
O         63.43117       91.97257       60.98078
C         62.02289       90.73899       58.58593
C         61.13302       89.64368       59.12147
N         61.64786       88.63407       59.85038
O         59.92981       89.68353       58.91137
H         63.49595       93.08101       58.67905
H         60.64686       92.23048       59.29005
H         63.09885       90.47804       58.70157
H         61.81921       90.83896       57.49752
H         62.64125       88.61921       60.08780
H         61.04927       87.88571       60.21379
N         61.35975       91.64173       61.77182
C         61.79689       91.42825       63.14639
C         61.68202       89.97433       63.54372
O         61.28044       89.15087       62.73372
H         60.35902       91.51572       61.55525
H         61.19227       92.06891       63.82261
H         62.86293       91.70999       63.28085
N         62.04648       89.58189       64.79883
C         61.99443       88.18348       65.22980
C         63.01085       87.29663       64.49225
O         62.90051       86.08372       64.59609
C         62.13026       88.04000       66.77303
C         63.46528       88.53543       67.35111
O         61.05356       88.67088       67.42306
H         62.33957       90.31409       65.46117
H         60.97768       87.80836       64.98307
H         62.05679       86.95749       67.01706
H         61.15799       89.65185       67.31961
H         63.48445       88.35790       68.44717
H         64.30793       87.98320       66.90388
H         63.61524       89.62016       67.17661
N         64.02164       87.82691       63.73992
C         64.97788       87.04685       62.95033
C         64.85725       87.48827       61.50365
O         64.85166       88.68304       61.24181
C         66.42424       87.24468       63.48908
C         66.58782       86.68781       64.92927
C         67.48363       86.62022       62.55674
C         66.42165       85.16652       65.07641
H         64.13407       88.85013       63.71270
H         64.75226       85.96154       62.98979
H         66.63110       88.33737       63.52619
H         65.85586       87.18273       65.58924
H         67.59990       86.95379       65.30281
H         68.50060       86.77538       62.97564
H         67.31060       85.53353       62.41389
H         67.46369       87.10209       61.55719
H         66.55267       84.88486       66.14203
H         65.41475       84.82545       64.76483
H         67.18945       84.62014       64.49128
N         64.79239       86.55621       60.50938
C         64.57716       86.88662       59.10252
C         63.37638       86.11429       58.54612
O         62.59352       86.68816       57.80069
C         65.85159       86.65657       58.26439
C         65.79461       87.39544       56.94343
O         64.82741       88.08219       56.64671
O         66.86542       87.42174       56.13232
H         64.93501       85.57407       60.77603
H         64.38697       87.97542       59.01607
H         66.05681       85.57607       58.12187
H         66.70845       87.10888       58.81188
N         63.16221       84.80977       58.89053
C         62.04906       83.98085       58.44114
C         62.62951       82.75745       57.75488
O         63.48522       82.11158       58.35046
C         61.20832       83.52952       59.64942
C         60.48807       84.67246       60.32159
C         60.84120       85.06314       61.62253
C         59.43526       85.33940       59.66637
C         60.15443       86.10095       62.25664
C         58.74513       86.37335       60.30987
C         59.10505       86.75397       61.60550
H         63.82303       84.34733       59.52881
H         61.38821       84.54168       57.74845
H         61.87940       83.01352       60.37096
H         60.43893       82.79238       59.32799
H         61.64944       84.56757       62.14535
H         59.13770       85.04923       58.66631
H         60.43534       86.39604       63.25441
H         57.93137       86.87937       59.80614
H         58.57648       87.55715       62.10282
N         62.23774       82.35346       56.51336
C         62.86850       81.27774       55.76422
C         64.35413       81.52724       55.55469
O         65.15103       80.62478       55.76143
C         62.13845       81.30655       54.41471
C         60.76092       81.77477       54.82080
C         61.09925       82.89435       55.79938
H         62.68370       80.31015       56.28500
H         62.55370       82.11151       53.76635
H         62.17903       80.34756       53.85560
H         60.08983       82.07364       53.98908
H         60.27929       80.94412       55.38915
H         61.40452       83.83391       55.28939
H         60.21246       83.05648       56.45000
N         64.78476       82.76496       55.16572
C         66.18314       83.10680       54.90160
C         67.09865       82.85551       56.09040
O         68.30078       82.76153       55.87894
C         66.30141       84.59973       54.52266
C         65.63320       84.94709       53.18542
C         65.64527       86.43231       52.96222
O         64.94919       87.24028       53.78469
O         66.26197       86.91256       52.02544
H         64.07177       83.50032       55.05343
H         66.54292       82.46919       54.06366
H         67.37150       84.89737       54.44841
H         65.83361       85.18213       55.34433
H         64.57588       84.61493       53.15577
H         66.18747       84.43083       52.37185
N         66.62965       82.77026       57.36402
C         67.50519       82.51871       58.48720
H         68.27728       83.31442       58.55504
H         66.91872       82.50808       59.43002
H         68.00003       81.53141       58.36404
H         65.63016       82.90503       57.55192
Ca        66.84371       89.30989       54.92121
O         69.34231       89.90237       53.40148
H         69.53770       90.09538       54.35310
H         68.82178       90.68583       53.09168
O         63.47465       90.53017       54.28745
H         64.03437       90.97827       54.96956
H         62.59740       90.98543       54.34800
O         65.31220       89.90043       51.64582
H         65.50697       90.85763       51.48473
H         65.31259       89.49208       50.74368

Ca 1.0



