%chk=apoCaM-CA-Ng.loop1.water3.frame23.chk
%nprocshared=20
%mem=10GB
%nosave
#b3lyp/svp scf=(tight,noincore,xqc) Test 
#IOP(5/87=12) Density=Current Pop=(MK,readradii) iop(6/33=2) iop(6/42=6)

apoCaM-CA-Ng.loop1.water3.frame23 

   0  1 
C         64.83121       34.02914       56.08447
C         63.40082       33.70776       55.77363
O         62.51094       34.31659       56.35136
H         65.35087       34.36082       55.16163
H         64.89656       34.83691       56.84447
H         65.33425       33.12311       56.48314
N         63.10255       32.74403       54.85740
C         61.72729       32.38478       54.51853
C         60.95803       31.79515       55.69958
O         59.74914       31.66753       55.59454
C         61.68368       31.39035       53.33235
C         62.24712       30.02847       53.66916
O         61.53260       29.04099       53.60118
O         63.53524       29.88471       54.03437
H         63.88632       32.28482       54.37052
H         61.22232       33.32183       54.19403
H         62.24451       31.81199       52.47058
H         60.62483       31.26615       53.01430
N         61.60426       31.34123       56.81185
C         60.95394       30.66646       57.93390
C         60.15415       31.64524       58.78043
O         60.72405       32.66693       59.13871
C         62.02645       30.03995       58.86358
C         62.95125       29.00531       58.19162
C         62.20947       27.75688       57.68704
C         63.16581       26.68877       57.12641
N         63.85137       27.13013       55.90951
H         62.62893       31.41522       56.83447
H         60.32976       29.84291       57.55243
H         61.52579       29.54905       59.72556
H         62.67028       30.85189       59.26927
H         63.69384       28.68364       58.95369
H         63.50925       29.48257       57.36414
H         61.47127       28.02197       56.90148
H         61.66340       27.30821       58.54539
H         62.56780       25.78270       56.88479
H         63.91376       26.40736       57.90051
H         64.47621       27.94436       56.10058
H         64.44395       26.34698       55.55137
H         63.15013       27.37970       55.17564
N         58.89123       31.41577       59.25779
C         58.01983       30.26901       59.00871
C         58.65338       28.90674       59.30086
O         58.68750       28.07526       58.40272
C         57.42482       30.35621       57.58968
C         56.54240       31.55936       57.38342
O         56.26072       32.31579       58.30025
O         55.94937       31.71720       56.19178
H         58.50543       32.12819       59.89866
H         57.14711       30.33554       59.69878
H         56.77820       29.47100       57.41137
H         58.22413       30.33779       56.83399
N         59.10506       28.52994       60.53191
C         59.17831       29.37184       61.71162
C         58.11031       28.97192       62.70785
O         58.02618       27.78766       62.99699
H         59.41635       27.55210       60.64671
H         59.14177       30.42296       61.43686
H         60.18043       29.22425       62.16653
N         57.23731       29.84869       63.29708
C         57.23632       31.30749       63.17741
C         55.99095       31.82073       62.46464
O         55.86845       33.02604       62.30500
C         57.36823       31.92863       64.58416
C         58.65511       31.56367       65.28759
O         58.88617       32.04010       66.52490
O         59.49651       30.85575       64.75540
H         56.52082       29.44417       63.92265
H         58.08530       31.69143       62.59154
H         56.51175       31.60040       65.21173
H         57.34006       33.03659       64.50316
N         55.05894       30.97012       61.94647
C         53.94507       31.45225       61.13974
C         53.14473       30.31682       60.53656
O         53.34885       29.16517       60.89161
H         55.18754       29.95945       62.06894
H         54.37363       32.03160       60.29367
H         53.28137       32.12174       61.72800
N         52.26289       30.57789       59.53032
C         51.59734       29.51717       58.78666
C         52.29313       29.43311       57.42367
O         51.81044       30.37656       56.51621
C         50.06429       29.76773       58.71705
C         49.32461       28.69520       57.91304
O         49.78409       31.02034       58.14074
H         52.15829       31.55135       59.20530
H         51.76591       28.53878       59.28630
H         49.65803       29.73052       59.75500
H         49.74398       31.68542       58.87621
H         48.23310       28.89592       57.93280
H         49.64550       28.70665       56.84920
H         49.50962       27.68925       58.34431
N         52.43344       28.07171       56.88732
C         52.99035       28.00494       55.52657
C         51.85078       27.97784       54.52390
O         51.05423       27.04932       54.54511
C         53.92142       26.75869       55.39441
C         55.14530       26.92735       56.33817
C         54.38776       26.55922       53.93516
C         56.08694       25.72077       56.37870
H         51.59361       27.46474       57.01684
H         53.63423       28.89270       55.32812
H         53.34640       25.85467       55.69438
H         54.78861       27.09484       57.37670
H         55.73206       27.81915       56.02659
H         53.52009       26.41483       53.25966
H         54.97672       27.43327       53.58479
H         55.00162       25.64299       53.82902
H         56.55857       25.53236       55.39337
H         56.90761       25.92133       57.10017
H         55.53780       24.81419       56.70794
N         51.75307       28.95721       53.58448
C         50.77628       28.94592       52.50196
C         51.46990       28.71947       51.16280
O         50.78508       28.68982       50.15055
C         49.93909       30.24823       52.50688
C         50.76522       31.50816       52.20134
O         49.30959       30.37876       53.75519
H         52.45229       29.71315       53.59646
H         50.06505       28.10065       52.63332
H         49.16168       30.14391       51.71417
H         48.57987       31.04292       53.64409
H         51.24765       31.42893       51.20533
H         50.10116       32.39766       52.18694
H         51.54599       31.67595       52.96709
N         52.82414       28.52516       51.08903
C         53.59298       28.28077       49.87578
C         53.60023       29.49902       48.96395
O         52.77948       30.39265       49.12038
C         53.12201       26.99208       49.14207
C         53.08160       25.78014       50.08309
O         53.98826       26.70884       48.07395
H         53.38603       28.52511       51.94926
H         54.64752       28.12695       50.20244
H         52.09462       27.16273       48.74771
H         53.48352       26.14602       47.42988
H         52.36694       25.94914       50.91615
H         52.73922       24.88256       49.52478
H         54.08851       25.57747       50.50453
N         54.54124       29.60104       47.98378
C         54.57202       30.69016       47.00892
C         54.87123       32.06663       47.61006
O         54.79841       33.03934       46.87133
C         55.57455       30.37654       45.87635
C         55.18863       29.08157       45.12833
C         56.07499       28.76694       43.91661
C         55.95472       29.82242       42.80594
N         56.67370       29.40158       41.60565
H         55.23689       28.84522       47.90915
H         53.56311       30.75004       46.54246
H         56.60687       30.29165       46.28305
H         55.54418       31.22476       45.16362
H         54.13485       29.15434       44.78160
H         55.25741       28.21329       45.81556
H         55.72977       27.79168       43.50832
H         57.13573       28.65512       44.23115
H         56.36821       30.79336       43.15187
H         54.88145       29.96583       42.54886
H         56.26211       28.51296       41.23763
H         56.57800       30.14339       40.87508
H         57.68699       29.26103       41.82145
N         55.17426       32.24677       48.92682
C         55.35688       33.56950       49.52449
C         56.61039       34.24050       49.00736
O         57.68683       33.67235       49.13379
C         55.44923       33.46814       51.05504
C         54.14157       32.94359       51.65613
C         54.30083       32.76275       53.12498
O         54.23488       31.64109       53.59297
O         54.54358       33.81735       53.92752
H         55.24152       31.42297       49.53879
H         54.46702       34.20082       49.30145
H         55.64918       34.47698       51.48300
H         56.29292       32.79565       51.33040
H         53.88337       31.95932       51.21386
H         53.30240       33.64363       51.45160
N         56.54136       35.48545       48.45767
C         57.70144       36.22568       48.00503
H         58.64567       35.65604       48.13305
H         57.58197       36.47926       46.93198
H         57.78289       37.16665       48.59003
H         55.62553       35.95298       48.38064
Ca        53.72239       31.50267       56.16285
O         50.89834       33.11348       55.21440
H         50.14224       33.66974       55.52715
H         50.54037       32.19211       55.22624
O         52.40245       35.41925       56.50125
H         51.43330       35.52632       56.67394
H         52.66016       36.24500       56.01975
O         55.68507       35.00397       56.67364
H         56.00656       35.68563       57.31574
H         56.49250       34.74329       56.16302

Ca 1.0



