%chk=apoCaM-CA-Ng.loop2.water3.frame657.chk
%nprocshared=20
%mem=10GB
%nosave
#b3lyp/svp scf=(tight,noincore,xqc) Test 
#IOP(5/87=12) Density=Current Pop=(MK,readradii) iop(6/33=2) iop(6/42=6)

apoCaM-CA-Ng.loop2.water3.frame657 

   -2  1 
C         74.42831       33.10993       98.61038
C         73.58746       32.89994       99.83206
O         72.57927       32.21125       99.75857
H         75.44521       32.70426       98.79189
H         73.98487       32.59635       97.73105
H         74.50149       34.19639       98.39177
N         73.94427       33.48950      101.00468
C         73.16873       33.34438      102.22602
C         73.54676       32.05018      102.93059
O         74.71166       31.83810      103.23946
C         73.32933       34.59553      103.10583
C         72.51518       34.49111      104.36539
O         71.31142       34.29217      104.30892
O         73.11342       34.61630      105.56437
H         74.78481       34.08896      101.01718
H         72.08688       33.32672      101.96277
H         72.96460       35.47400      102.52538
H         74.39664       34.76923      103.35961
N         72.57466       31.13732      103.21015
C         72.80902       29.82357      103.80333
C         73.56942       28.94215      102.81783
O         73.16224       28.91220      101.66427
C         71.45887       29.16773      104.11424
H         71.60302       31.39456      102.97940
H         73.33666       29.95441      104.76788
H         70.90262       29.79301      104.84599
H         70.84505       29.07517      103.19212
H         71.60673       28.15921      104.55414
N         74.67369       28.19838      103.13163
C         75.20524       27.97420      104.47508
C         76.44722       28.80184      104.76329
O         77.11425       29.24831      103.84227
C         75.45678       26.45656      104.71853
C         76.24560       25.72989      103.65849
O         76.05538       24.53731      103.46990
O         77.19360       26.36388      102.95483
H         75.13214       27.70599      102.35053
H         74.46489       28.26920      105.23808
H         74.47923       25.93938      104.78409
H         75.97215       26.29453      105.68991
N         76.81425       29.01345      106.06632
C         78.06234       29.63757      106.49299
C         77.88363       30.77268      107.48772
O         76.75715       31.18377      107.72982
H         76.20473       28.63899      106.81000
H         78.66151       29.98586      105.63521
H         78.62309       28.84348      107.02112
N         78.94719       31.30850      108.17207
C         80.34237       30.87624      108.01115
C         80.92923       31.29968      106.68059
O         80.34576       32.12282      105.98923
C         81.24390       31.47377      109.12822
C         81.05865       30.83416      110.48276
N         81.77477       31.28461      111.53951
O         80.29589       29.89049      110.62993
H         78.73942       32.02630      108.88602
H         80.39494       29.76890      108.06921
H         81.06962       32.57120      109.19287
H         82.31731       31.32525      108.88172
H         82.42448       32.07858      111.43612
H         81.68256       30.83831      112.46399
N         82.14426       30.79444      106.30357
C         82.86412       31.20646      105.10922
C         83.28511       30.06341      104.19821
O         83.89164       30.36213      103.17906
H         82.60896       30.11911      106.92983
H         83.79720       31.71297      105.43928
H         82.27293       31.93831      104.52154
N         83.05367       28.74623      104.49078
C         83.55844       27.65099      103.65917
C         82.99464       27.72385      102.24742
O         81.79962       27.55843      102.04880
C         83.24808       26.27685      104.30599
C         83.79907       25.09254      103.50115
O         83.79465       26.24691      105.59936
H         82.56064       28.50598      105.36073
H         84.66731       27.75088      103.61479
H         82.14687       26.16837      104.36341
H         83.39122       25.46874      106.06527
H         83.39379       25.08233      102.46771
H         84.90766       25.12880      103.46438
H         83.48775       24.14587      103.99352
N         83.84355       27.98288      101.21772
C         83.46306       28.04844       99.81360
C         83.09839       26.65463       99.29834
O         83.90114       25.73595       99.37263
C         84.62131       28.70847       99.00174
C         84.38395       28.64511       97.47117
C         84.79965       30.17298       99.47541
C         85.50215       29.31885       96.66901
H         84.82795       28.16992      101.45600
H         82.58844       28.72900       99.69853
H         85.55980       28.14838       99.20948
H         83.41460       29.10670       97.19461
H         84.35558       27.57721       97.16683
H         83.88657       30.76749       99.25545
H         84.99904       30.23500      100.56363
H         85.66879       30.65559       98.98823
H         86.49546       28.93926       96.99249
H         85.37162       29.11081       95.58795
H         85.47130       30.42100       96.79849
N         81.88101       26.47545       98.72086
C         81.33396       25.26843       98.13185
C         81.06854       25.41949       96.63188
O         80.76359       24.40155       96.02399
C         79.96981       25.00431       98.81352
C         80.15651       24.72719      100.27471
O         80.70750       23.69415      100.60771
O         79.76357       25.56452      101.25064
H         81.26522       27.26687       98.71698
H         82.04141       24.41931       98.27306
H         79.44217       24.13959       98.35219
H         79.32479       25.90061       98.66841
N         81.14222       26.61574       95.95757
C         80.81506       26.72911       94.53353
C         79.86014       27.90346       94.23977
O         80.14108       28.67269       93.33581
C         82.15673       26.79370       93.76322
C         82.08267       26.81135       92.25163
C         83.08337       27.48596       91.52725
C         81.07144       26.13372       91.54368
C         83.06777       27.48687       90.12932
C         81.05358       26.14927       90.14795
C         82.05092       26.82237       89.44062
H         81.44800       27.46782       96.44483
H         80.28013       25.81531       94.21410
H         82.73112       25.88193       94.03479
H         82.75793       27.65937       94.12485
H         83.88575       28.00078       92.04275
H         80.29002       25.59228       92.05382
H         83.84691       27.99902       89.57952
H         80.26655       25.63150       89.61604
H         82.03766       26.82353       88.35893
N         78.68847       28.09468       94.92700
C         77.76560       29.22511       94.73321
C         78.45349       30.59347       94.85267
O         78.09717       31.53755       94.16278
C         76.76993       29.05117       95.90234
C         76.75755       27.55066       96.10386
C         78.22806       27.20668       95.97082
H         77.24882       29.11699       93.75536
H         77.19922       29.47762       96.83930
H         75.76955       29.50809       95.73955
H         76.29748       27.19321       97.05056
H         76.22309       27.09330       95.24215
H         78.77975       27.43360       96.90323
H         78.33086       26.13378       95.70905
N         79.46249       30.72595       95.75154
C         80.24149       31.91055       96.07702
C         81.03594       32.38675       94.86380
O         81.34225       33.56734       94.77853
C         81.20051       31.64380       97.28296
C         80.53593       31.27000       98.64508
C         80.07083       29.85947       98.85704
O         79.52299       29.50491      100.02922
O         80.25413       29.00646       98.02709
H         79.70098       29.87554       96.21149
H         79.53559       32.71627       96.37570
H         81.73338       32.60030       97.46976
H         81.96709       30.88529       97.01949
H         79.68632       31.95208       98.84346
H         81.29966       31.40201       99.43910
N         81.38366       31.51366       93.87793
C         81.95515       31.88726       92.60163
H         82.95600       31.42496       92.47910
H         81.29213       31.49784       91.79632
H         82.02684       32.98651       92.47773
H         81.21456       30.51989       94.02732
Ca        78.74959       27.46965      101.80476
O         76.70769       28.10610      100.10995
H         77.07653       28.70248       99.41238
H         75.73279       28.09594       99.94959
O         79.70158       30.44496      103.13584
H         78.90873       30.98893      102.90214
H         79.99940       30.81713      103.99901
O         79.34588       27.44124      104.64915
H         78.90333       26.88966      105.34097
H         80.30782       27.26192      104.76727

Ca 1.0



