%chk=apoCaM-CA-Ng.loop4.water5.frame685.chk
%nprocshared=20
%mem=10GB
%nosave
#b3lyp/svp scf=(tight,noincore,xqc) Test 
#IOP(5/87=12) Density=Current Pop=(MK,readradii) iop(6/33=2) iop(6/42=6)

apoCaM-CA-Ng.loop4.water5.frame685 

   -3  1 
C         72.46424       69.56893       94.02464
C         71.76275       70.21617       95.18610
O         71.98702       71.38951       95.44092
H         73.56193       69.60459       94.17676
H         72.16314       68.50461       93.90979
H         72.20776       70.10480       93.08792
N         70.88355       69.49618       95.93382
C         70.12271       70.00483       97.07025
C         69.20023       71.13823       96.63872
O         69.21054       72.19941       97.24898
C         71.03192       70.45204       98.24063
C         72.21476       69.56318       98.48056
O         72.10017       68.24276       98.69727
O         73.33195       70.05559       98.45555
H         70.72233       68.50844       95.68031
H         69.49495       69.15835       97.43079
H         70.41367       70.53291       99.16107
H         71.44832       71.46115       98.02549
N         68.40314       70.99681       95.54525
C         67.55684       72.08657       95.05496
C         66.45258       72.41175       96.06366
O         66.09229       71.52763       96.82871
C         66.96626       71.76098       93.64104
C         66.06399       70.49539       93.64800
C         68.10992       71.66165       92.61127
C         65.37135       70.23170       92.30970
H         68.45855       70.10959       95.02668
H         68.20901       72.97921       94.94624
H         66.33040       72.60713       93.31930
H         65.26220       70.63004       94.40416
H         66.64314       69.58927       93.91813
H         67.71695       71.54987       91.58127
H         68.70962       72.59729       92.62109
H         68.78420       70.80796       92.82926
H         66.10563       70.00896       91.50960
H         64.70790       69.34681       92.40852
H         64.75449       71.10683       92.01520
N         65.81890       73.62503       96.12822
C         66.17850       74.80524       95.34060
C         67.50432       75.43249       95.76536
O         68.00407       76.27285       95.02987
C         65.04303       75.85571       95.36217
C         64.71225       76.43215       96.71810
O         63.81257       77.25123       96.81275
O         65.38083       76.06055       97.82726
H         65.02300       73.69980       96.78091
H         66.27131       74.50109       94.28338
H         64.12424       75.37609       94.95871
H         65.31276       76.69406       94.68351
N         68.13027       75.08875       96.93000
C         69.42551       75.61807       97.33177
C         69.44760       77.11762       97.53940
O         68.43781       77.78832       97.37242
H         67.69377       74.40052       97.55937
H         70.17811       75.35185       96.55896
H         69.72888       75.13953       98.28851
N         70.61679       77.70916       97.91698
C         70.76242       79.14817       98.12461
C         70.58482       79.97421       96.85202
O         70.55603       81.19218       96.96661
C         72.13383       79.47583       98.77500
C         73.35450       79.04436       97.99169
O         73.25871       78.43424       96.93821
O         74.57820       79.31985       98.48049
H         71.42579       77.09435       98.09467
H         69.97652       79.46683       98.84537
H         72.18392       78.98013       99.76770
H         72.19778       80.57322       98.94486
N         70.47702       79.41213       95.61073
C         70.31872       80.20568       94.40048
C         71.53626       81.04072       94.03990
O         71.45852       81.75355       93.05021
H         70.48996       78.38927       95.50111
H         69.43030       80.86427       94.51462
H         70.12909       79.52403       93.54282
N         72.69961       80.99177       94.75962
C         73.90278       81.76160       94.45884
C         74.56031       81.34815       93.14612
O         75.54392       81.97245       92.77378
C         73.63507       83.28205       94.55378
C         73.06376       83.64589       95.93880
C         72.87137       85.12428       96.15787
N         72.36311       85.56083       97.33369
O         73.17125       85.93216       95.29078
H         72.76109       80.38226       95.57822
H         74.66111       81.53741       95.24357
H         72.93802       83.62004       93.75882
H         74.60016       83.81793       94.41484
H         73.75195       83.27187       96.72788
H         72.07750       83.15371       96.06554
H         72.10380       84.89095       98.07357
H         72.22655       86.56740       97.50702
N         74.13286       80.25860       92.43795
C         74.78466       79.77615       91.22297
C         75.42280       78.40740       91.43061
O         76.07710       77.93920       90.50768
C         73.76925       79.70886       90.04260
C         72.61870       78.71148       90.29777
C         73.19511       81.09382       89.72439
H         73.33963       79.71075       92.78982
H         75.61090       80.46284       90.93569
H         74.31608       79.36100       89.13769
H         71.96100       78.65071       89.40534
H         73.01332       77.69170       90.49056
H         71.99027       79.01769       91.15941
H         72.62021       81.49271       90.58595
H         74.01557       81.80034       89.47963
H         72.51625       81.03142       88.84685
N         75.23843       77.68162       92.57408
C         75.72928       76.32102       92.74147
C         76.52227       76.18859       94.03406
O         76.55230       77.11579       94.83305
C         74.48372       75.39982       92.74644
C         74.77959       73.92294       92.79016
N         74.32041       73.15607       93.80718
O         75.42708       73.41028       91.88931
H         74.65829       78.05702       93.33722
H         76.38695       76.03755       91.89054
H         73.90524       75.58595       91.81550
H         73.83597       75.68455       93.60531
H         73.76632       73.56738       94.57260
H         74.51658       72.14459       93.82968
N         77.18138       75.02946       94.30358
C         77.81779       74.72240       95.58038
C         78.52851       73.39235       95.45613
O         77.89715       72.42588       95.04784
C         76.74039       74.65096       96.68995
C         77.28271       74.26843       98.04885
C         76.77789       73.13702       98.71369
C         78.27185       75.04529       98.67659
C         77.24755       72.79409       99.98437
C         78.74626       74.69473       99.94517
C         78.23393       73.57261      100.60498
O         78.69117       73.25614      101.83341
H         77.20576       74.31400       93.56233
H         78.55957       75.51173       95.83176
H         75.95734       73.92455       96.37756
H         76.24885       75.63909       96.79700
H         76.01100       72.52466       98.25574
H         78.67425       75.92353       98.18863
H         76.84020       71.92586      100.48717
H         79.50795       75.30083      100.41954
H         78.35304       72.49590      102.32821
N         79.84149       73.26741       95.80057
C         80.57865       72.02463       95.63912
C         80.81138       71.41252       97.01335
O         81.61069       71.96078       97.75958
C         81.89344       72.32226       94.87814
C         82.75853       71.08473       94.60814
C         84.01167       71.46574       93.86956
O         84.24312       70.99501       92.76729
O         84.89074       72.32354       94.42343
H         80.33006       74.07578       96.21691
H         79.99012       71.33416       95.01336
H         82.48995       73.05778       95.46335
H         81.63556       72.79066       93.90213
H         82.18067       70.35971       93.99757
H         83.04960       70.60332       95.56602
N         80.12359       70.32026       97.47848
C         79.04226       69.63298       96.76131
C         79.54219       68.92323       95.51846
O         80.74197       68.77499       95.33705
C         78.33646       68.60737       97.68235
C         77.53628       69.28643       98.80651
C         77.12600       68.28088       99.85151
O         76.35109       67.21407       99.56374
O         77.54900       68.40505      100.98948
H         80.34304       70.00936       98.43821
H         78.29273       70.38927       96.45035
H         79.11887       67.93951       98.10735
H         77.62283       67.97616       97.10968
H         76.64931       69.80494       98.37941
H         78.17048       70.05055       99.30404
N         78.64108       68.49785       94.58867
C         79.01029       67.87458       93.33501
H         80.10865       67.75876       93.22566
H         78.53601       66.87418       93.26715
H         78.64189       68.50324       92.49615
H         77.63600       68.65520       94.75775
Ca        74.15127       67.39264       99.09600
O         72.72708       67.56045      101.75217
H         73.44797       67.92576      102.32424
H         72.18280       67.00119      102.36113
O         75.13606       65.20323      101.27789
H         74.51016       64.79586      101.92729
H         75.83139       65.63262      101.83735
O         75.58940       64.98858       97.48005
H         75.77813       65.02194       96.50872
H         76.48257       64.93662       97.90433
O         72.14728       64.77934       99.62308
H         71.75592       64.37643      100.43860
H         72.50983       64.01019       99.11559
O         74.57087       68.03481       96.19019
H         74.66110       68.99849       96.39756
H         75.45614       67.77666       95.83189

Ca 1.0



