%chk=apoCaM-CA-Ng.loop1.water3.frame963.chk
%nprocshared=20
%mem=10GB
%nosave
#b3lyp/svp scf=(tight,noincore,xqc) Test 
#IOP(5/87=12) Density=Current Pop=(MK,readradii) iop(6/33=2) iop(6/42=6)

apoCaM-CA-Ng.loop1.water3.frame963 

   0  1 
C         59.96651       91.11930       10.88352
C         59.85552       89.72264       11.42839
O         58.74551       89.28097       11.68727
H         61.02246       91.39495       10.67721
H         59.39551       91.19301        9.93387
H         59.54947       91.84355       11.61403
N         60.97305       88.96601       11.62377
C         60.95006       87.59347       12.12308
C         61.67277       87.49524       13.46142
O         62.77938       87.98861       13.59652
C         61.47969       86.59852       11.06669
C         62.88861       86.78314       10.56614
O         63.67192       87.78584       10.99572
O         63.32615       86.00622        9.73304
H         61.88590       89.38837       11.40237
H         59.89975       87.26801       12.29001
H         60.80574       86.65501       10.18368
H         61.39545       85.57435       11.49191
N         61.05304       86.89549       14.51538
C         61.58310       86.83370       15.88001
C         62.83792       85.96824       15.96850
O         62.77446       84.79582       15.62749
C         60.50459       86.25475       16.82791
C         59.23378       87.12947       16.86499
C         58.10774       86.45254       17.65177
C         56.81575       87.27845       17.56189
N         55.71052       86.60136       18.23742
H         60.12640       86.48464       14.33335
H         61.80656       87.86697       16.22807
H         60.90878       86.17281       17.86146
H         60.23946       85.23328       16.47430
H         58.84911       87.29400       15.83944
H         59.47224       88.12395       17.30176
H         58.40912       86.31937       18.71334
H         57.91343       85.45207       17.20565
H         56.54376       87.42184       16.49125
H         56.97673       88.28017       18.01802
H         55.92953       86.47803       19.25204
H         54.84574       87.18127       18.14101
H         55.53880       85.66863       17.79535
N         64.00141       86.48263       16.47093
C         65.24314       85.71385       16.65800
C         66.32102       86.58580       17.30603
O         66.35806       87.77190       17.00921
C         65.79878       85.15417       15.32188
C         66.16819       86.24414       14.35231
O         67.32040       86.36804       13.96930
O         65.22801       87.10128       13.92354
H         63.98332       87.46882       16.76949
H         65.01826       84.85437       17.32298
H         65.06262       84.48157       14.83933
H         66.70080       84.54078       15.53707
N         67.31550       86.10437       18.10642
C         67.49426       84.73512       18.56150
C         66.54327       84.35228       19.67154
O         65.53726       85.01237       19.87447
H         68.04319       86.77561       18.40181
H         68.50513       84.69636       19.02563
H         67.49894       84.00261       17.72818
N         66.86165       83.30280       20.48289
C         66.09027       82.91372       21.66121
C         66.04857       84.04479       22.68148
O         67.09281       84.55576       23.06469
C         66.71605       81.65999       22.30987
C         65.92183       81.18444       23.49734
O         66.49702       81.12378       24.71353
O         64.75511       80.85006       23.36469
H         67.72141       82.77386       20.26603
H         65.05912       82.64393       21.34211
H         67.75857       81.88257       22.62841
H         66.74947       80.83780       21.56285
N         64.85381       84.44804       23.19836
C         64.70603       85.49038       24.20190
C         64.83535       86.89708       23.65333
O         64.56956       87.82371       24.40371
H         63.99986       83.94513       22.91377
H         65.39708       85.31766       25.05639
H         63.66861       85.42565       24.59646
N         65.20613       87.14272       22.36327
C         65.21715       88.47040       21.76240
C         66.64832       88.88960       21.49752
O         67.54392       88.06932       21.60915
C         64.39314       88.44496       20.44629
C         62.98416       87.87592       20.65167
O         64.29348       89.73927       19.91218
H         65.49000       86.36756       21.76529
H         64.77865       89.20611       22.47096
H         64.92796       87.77960       19.72685
H         64.10621       89.63856       18.94213
H         62.44297       87.86016       19.68135
H         63.03317       86.82910       21.02112
H         62.41470       88.49252       21.37721
N         66.94121       90.17709       21.16136
C         68.31516       90.62784       20.94241
C         69.18077       90.53322       22.20676
O         70.38989       90.67550       22.07074
C         68.36514       92.04945       20.29890
C         67.72026       93.13502       21.20504
C         67.72177       92.00223       18.89618
C         67.84448       94.55369       20.64469
H         66.16249       90.83641       21.05143
H         68.77116       89.92980       20.20376
H         69.43673       92.31219       20.15095
H         68.22401       93.12187       22.19475
H         66.64165       92.93402       21.36643
H         67.84612       92.96361       18.35979
H         68.22151       91.22815       18.27464
H         66.63935       91.76291       18.95084
H         67.29266       94.66194       19.68862
H         67.39925       95.27303       21.36402
H         68.91137       94.81733       20.48944
N         68.66391       90.27465       23.44932
C         69.48993       90.04230       24.63553
C         69.25346       91.10226       25.69284
O         68.13453       91.22320       26.17757
C         69.16447       88.65747       25.26018
C         69.52710       87.49101       24.34560
O         69.87751       88.50418       26.46195
H         67.64170       90.21318       23.57114
H         70.57086       90.05237       24.37356
H         68.06529       88.62724       25.46498
H         69.30660       87.97245       27.07689
H         70.61740       87.48751       24.13811
H         69.25110       86.53430       24.83898
H         68.98215       87.55139       23.39378
N         70.29351       91.85914       26.15305
C         70.18388       92.72325       27.32302
C         71.40805       93.62258       27.46309
O         71.23293       94.83290       27.47215
C         69.96367       91.85497       28.60436
C         69.83382       92.69546       29.87626
O         71.01755       90.94406       28.78760
H         71.21079       91.77554       25.68706
H         69.30260       93.39260       27.19197
H         69.00682       91.29191       28.51455
H         70.83814       90.16498       28.20103
H         68.98820       93.40807       29.78716
H         69.64519       92.02672       30.74423
H         70.77077       93.25777       30.07598
N         72.66529       93.10870       27.61432
C         73.83933       93.93515       27.88023
C         74.90736       93.75405       26.81850
O         75.24498       92.62923       26.47625
C         74.40833       93.64433       29.28550
C         74.95623       92.22291       29.48528
C         75.53332       92.05418       30.89194
C         76.12265       90.64941       31.06447
N         76.68075       90.47807       32.40386
H         72.79309       92.08833       27.58105
H         73.55974       95.01109       27.91347
H         73.60951       93.83857       30.03489
H         75.23395       94.36737       29.47406
H         75.77524       92.03160       28.76259
H         74.14856       91.47732       29.32919
H         74.73164       92.22059       31.64413
H         76.33775       92.80619       31.05280
H         76.92639       90.49019       30.31044
H         75.32777       89.88923       30.89610
H         77.07918       89.51503       32.48572
H         77.44289       91.17563       32.56735
H         75.93018       90.59838       33.12207
N         75.53957       94.84662       26.30874
C         76.65343       94.76336       25.37314
C         76.25120       94.06201       24.08009
O         76.89772       93.07451       23.75939
C         77.27297       96.16451       25.15199
C         78.51099       96.13675       24.24614
C         79.15491       97.49391       24.19573
O         78.46222       98.55815       23.74640
O         80.30865       97.63951       24.56754
H         75.25396       95.77827       26.64819
H         77.45768       94.15910       25.85498
H         77.58370       96.54741       26.15085
H         76.53521       96.87663       24.73233
H         78.21967       95.83563       23.21742
H         79.24460       95.39842       24.63857
N         75.21887       94.44464       23.27224
C         74.30460       95.54228       23.50933
H         73.27157       95.14087       23.57542
H         74.50232       96.09522       24.43944
H         74.35991       96.25466       22.66120
H         75.04681       93.88956       22.41950
Ca        65.70061       88.88142       12.61779
O         66.97529       87.59472       10.27831
H         67.89628       87.48784       10.62577
H         66.58642       86.68503       10.31834
O         64.59655       89.83993       15.31176
H         65.56245       89.83056       15.52886
H         64.14396       89.91498       16.18874
O         68.39423       89.88474       13.19070
H         68.57345       88.93555       12.97208
H         67.89748       89.85187       14.04699

Ca 1.0



