%chk=apoCaM-CA-Ng.loop3.water5.frame75.chk
%nprocshared=20
%mem=10GB
%nosave
#b3lyp/svp scf=(tight,noincore,xqc) Test 
#IOP(5/87=12) Density=Current Pop=(MK,readradii) iop(6/33=2) iop(6/42=6)

apoCaM-CA-Ng.loop3.water5.frame75 

   0  1 
C         76.40752       67.49546       56.45165
C         77.49218       66.91215       55.59572
O         77.52788       67.22617       54.41652
H         75.41685       67.20507       56.04202
H         76.47864       67.13937       57.49997
H         76.48810       68.60346       56.44467
N         78.41150       66.04203       56.11479
C         79.50930       65.45632       55.34051
C         79.01755       64.56998       54.19313
O         79.82258       64.17453       53.36139
C         80.46295       66.56468       54.83915
C         80.97371       67.39708       55.98426
O         81.66720       66.82023       56.98496
O         80.75827       68.59819       56.01451
H         78.34504       65.78882       57.11235
H         80.11123       64.80165       56.01008
H         79.95444       67.21812       54.09994
H         81.33653       66.10158       54.33238
N         77.71556       64.17327       54.11679
C         77.15824       63.36659       53.03346
C         77.19138       64.17017       51.74271
O         77.73063       63.70745       50.74794
C         75.73090       62.93786       53.45249
C         75.02060       61.95982       52.50395
C         73.81413       61.33632       53.24014
C         73.03879       60.29653       52.41839
N         72.22614       60.91409       51.37161
H         77.07737       64.44280       54.87877
H         77.75151       62.43093       52.92185
H         75.07846       63.82247       53.62695
H         75.86202       62.41635       54.42756
H         75.71549       61.13386       52.23786
H         74.72118       62.49088       51.57576
H         73.11422       62.12069       53.60283
H         74.21729       60.80244       54.12962
H         72.35459       59.75322       53.10858
H         73.74085       59.55101       51.98340
H         71.52001       61.55212       51.80733
H         72.82064       61.44653       50.69919
H         71.71518       60.16233       50.85446
N         76.67920       65.43028       51.73463
C         76.69779       66.35236       50.59981
C         78.11667       66.59749       50.08940
O         79.02416       66.76866       50.89128
C         76.05218       67.67764       51.06166
C         75.90958       68.69869       49.97490
O         75.18350       68.44072       48.87540
O         76.41745       69.79820       50.10310
H         76.26687       65.76581       52.61878
H         76.07493       65.93549       49.77818
H         76.65032       68.10414       51.89578
H         75.03284       67.46521       51.44805
N         78.36504       66.65141       48.74676
C         79.68314       66.89553       48.17171
C         80.28101       68.24397       48.53832
O         81.49903       68.34717       48.55890
H         77.58172       66.50798       48.09178
H         79.62091       66.84716       47.06216
H         80.37368       66.08612       48.49223
N         79.49634       69.32225       48.82465
C         80.01827       70.63232       49.21968
C         79.61623       70.97814       50.65351
O         79.91075       72.07872       51.09962
C         79.51272       71.71841       48.24700
C         80.00631       71.49252       46.83716
N         80.83511       72.38419       46.24387
O         79.65461       70.49760       46.22218
H         78.47431       69.21271       48.77505
H         81.13009       70.65088       49.19229
H         79.88523       72.70552       48.59869
H         78.40188       71.75732       48.25301
H         81.15290       73.22836       46.74211
H         81.17071       72.22567       45.28221
N         78.98001       70.07493       51.45158
C         78.56694       70.33118       52.81821
C         77.42804       71.31747       52.90524
O         77.03668       71.90212       51.90520
H         78.79237       69.13419       51.09832
H         79.43138       70.66094       53.43329
H         78.19378       69.37872       53.24445
N         76.82685       71.53176       54.10735
C         75.71818       72.46573       54.29138
C         74.48835       72.05532       53.46926
O         74.46198       70.97278       52.89972
C         75.41573       72.57469       55.81346
C         74.36500       73.58986       56.19657
C         74.51713       74.94595       55.85542
C         73.21943       73.18796       56.90450
C         73.52475       75.87311       56.18793
C         72.23453       74.11846       57.24446
C         72.38055       75.46374       56.88042
O         71.43122       76.36907       57.19124
H         77.19505       71.02046       54.92585
H         76.06239       73.45680       53.92468
H         76.35467       72.86606       56.33261
H         75.12642       71.56645       56.18617
H         75.39220       75.28156       55.31435
H         73.08333       72.15252       57.19156
H         73.64415       76.91061       55.90316
H         71.35651       73.79134       57.78688
H         70.62424       76.12500       57.66686
N         73.44030       72.91900       53.34779
C         72.22568       72.68090       52.57758
C         72.14191       73.75859       51.49587
O         72.07152       73.40059       50.32944
C         70.99867       72.64427       53.54191
C         71.15998       71.45186       54.52843
C         69.67327       72.49008       52.77039
C         70.08143       71.36971       55.61128
H         73.50417       73.82583       53.81744
H         72.26279       71.69025       52.06896
H         70.97103       73.60148       54.10994
H         72.13298       71.52778       55.04953
H         71.16323       70.49628       53.95833
H         68.80463       72.56009       53.45604
H         69.53668       73.28876       52.03219
H         69.63827       71.52354       52.22712
H         69.07460       71.20283       55.17981
H         70.29974       70.50821       56.27770
H         70.07410       72.29651       56.22017
N         72.21337       75.09554       51.78893
C         72.25646       76.11998       50.73956
C         70.93952       76.25467       49.99278
O         70.92482       76.85799       48.92999
C         72.63232       77.49144       51.31313
O         73.87239       77.41124       51.95859
H         72.31253       75.38689       52.77263
H         73.05099       75.82337       50.01644
H         71.84568       77.80882       52.03526
H         72.69969       78.23121       50.48314
H         74.01162       78.29255       52.39255
N         69.79370       75.72188       50.49947
C         68.50009       75.73796       49.83799
C         68.60414       75.09379       48.47097
O         68.16061       75.67667       47.48653
C         67.91725       77.15680       49.79660
H         69.82898       75.26171       51.41187
H         67.80554       75.12196       50.45416
H         67.85745       77.56886       50.82638
H         68.54274       77.83156       49.17690
H         66.88969       77.13287       49.37344
N         69.18036       73.86740       48.33846
C         69.26102       73.18435       47.05521
C         69.36801       71.68332       47.21253
O         69.69610       71.19090       48.28558
C         70.43885       73.71140       46.22713
H         69.53108       73.40094       49.19033
H         68.30252       73.36492       46.51779
H         70.35135       74.80520       46.06462
H         71.39361       73.50933       46.76048
H         70.47545       73.21041       45.23581
N         69.00108       70.88710       46.17176
C         68.97834       69.43112       46.19936
C         68.23040       68.93351       47.42929
O         68.77497       68.15161       48.19721
C         70.40412       68.84476       46.09641
C         71.17785       69.42155       44.90060
C         72.49286       68.72115       44.72125
O         72.75229       68.16417       43.66685
O         73.39150       68.69733       45.72020
H         68.65188       71.34132       45.31176
H         68.42947       69.09013       45.29331
H         70.31257       67.74205       45.97930
H         70.97584       69.04813       47.02498
H         71.36577       70.50369       45.07131
H         70.57814       69.31058       43.97131
N         66.98171       69.40555       47.70095
C         66.24063       69.05234       48.89608
H         65.27109       68.59648       48.61105
H         66.79124       68.33753       49.54373
H         66.04824       69.97186       49.48913
H         66.54600       70.07728       47.05174
Ca        75.00796       70.15783       47.42814
O         77.12995       69.04858       45.86948
H         77.47929       68.27644       46.37927
H         76.92647       68.68687       44.97137
O         75.25291       72.74103       49.00794
H         75.97368       72.34577       49.55768
H         75.33710       73.71575       49.15486
O         73.63461       72.21335       45.65215
H         73.90129       73.11397       45.96536
H         73.10479       72.38106       44.83316
O         72.57650       71.25732       48.67543
H         72.35609       70.80645       49.52873
H         72.35735       70.59152       47.97909
O         76.69767       72.29963       46.22212
H         76.94405       71.81475       45.39511
H         76.64038       73.24893       45.94875

Ca 1.0



