%chk=apoCaM-CA-Ng.loop4.water6.frame880.chk
%nprocshared=20
%mem=10GB
%nosave
#b3lyp/svp scf=(tight,noincore,xqc) Test 
#IOP(5/87=12) Density=Current Pop=(MK,readradii) iop(6/33=2) iop(6/42=6)

apoCaM-CA-Ng.loop4.water6.frame880 

   -3  1 
C        125.22557      105.81123       10.90459
C        125.42569      107.28433       10.75341
O        125.67561      107.72434        9.64128
H        124.39875      105.47130       10.24530
H        126.16565      105.31596       10.61460
H        124.98976      105.52819       11.95103
N        125.35025      108.10483       11.84196
C        125.52025      109.55419       11.81769
C        124.37337      110.19841       11.05325
O        124.18061      109.89567        9.88733
C        126.91936      109.94424       11.28942
C        127.24894      111.40393       11.46909
O        128.34184      111.81724       11.11716
O        126.37124      112.25950       12.02935
H        125.16645      107.67483       12.76149
H        125.47553      109.89852       12.87538
H        127.02097      109.68906       10.21474
H        127.67865      109.36420       11.85923
N        123.52431      111.05431       11.68784
C        122.31189      111.59764       11.08283
C        122.33096      113.12494       11.16923
O        122.48680      113.63008       12.27231
C        121.08760      111.02312       11.85669
C        121.05991      109.46718       11.86068
C        119.75537      111.59227       11.33620
C        120.86622      108.80960       10.48895
H        123.70090      111.27790       12.67938
H        122.21765      111.27513       10.03053
H        121.18290      111.33640       12.92096
H        120.23308      109.12739       12.52079
H        122.00330      109.08090       12.30314
H        118.91039      111.17946       11.92666
H        119.72980      112.69635       11.44480
H        119.60341      111.34881       10.26511
H        120.87290      107.70591       10.61011
H        119.89080      109.09380       10.04519
H        121.67935      109.07756        9.78688
N        122.11870      113.95519       10.09848
C        121.86394      113.50928        8.72825
C        123.09381      112.88449        8.06758
O        122.94720      112.28266        7.01302
C        121.25941      114.65015        7.87510
C        122.13552      115.86377        7.69262
O        121.70879      116.81623        7.05965
O        123.37264      115.92651        8.22192
H        122.07167      114.96687       10.29825
H        121.06610      112.73654        8.77609
H        120.31806      114.98200        8.36834
H        120.99055      114.25343        6.87217
N        124.32518      112.94799        8.65094
C        125.48571      112.21130        8.18346
C        125.99560      112.59228        6.82185
O        126.38035      113.73650        6.62712
H        124.44808      113.48258        9.52215
H        125.25775      111.13196        8.19455
H        126.31997      112.38331        8.89617
N        126.12733      111.62848        5.86141
C        126.85754      111.83274        4.61626
C        125.99525      111.71129        3.36955
O        126.48141      112.08493        2.31165
C        128.07787      110.87753        4.59181
C        127.72267      109.41684        4.75375
O        128.17582      108.73069        5.82070
O        127.03357      108.84304        3.92958
H        125.77484      110.67971        6.06129
H        127.25471      112.87066        4.58630
H        128.73870      111.15283        5.44243
H        128.66168      111.01603        3.65971
N        124.71192      111.24944        3.39356
C        123.84998      111.25617        2.21777
C        124.29248      110.37644        1.05771
O        123.59350      110.39100        0.05614
H        124.29657      110.93449        4.28165
H        123.76548      112.30298        1.85326
H        122.83387      110.91955        2.51821
N        125.40471      109.58089        1.10178
C        125.86236      108.72144        0.00886
C        124.90636      107.57788       -0.29438
O        125.18131      106.83667       -1.22978
C        126.19567      109.54471       -1.26333
C        127.25292      110.63123       -1.00488
C        128.55339      110.03998       -0.51650
N        129.04139      110.35784        0.70434
O        129.16639      109.25774       -1.22747
H        125.97932      109.57177        1.94605
H        126.80579      108.22576        0.32794
H        125.28266      110.02304       -1.67310
H        126.58494      108.86240       -2.05142
H        126.85131      111.35716       -0.26724
H        127.44713      111.18665       -1.94732
H        128.53770      111.01106        1.31719
H        129.92217      109.94417        1.04331
N        123.80491      107.32553        0.47251
C        122.88768      106.22295        0.21379
C        122.90216      105.18948        1.33730
O        122.22130      104.18597        1.18890
C        121.44447      106.76526       -0.02921
C        120.84234      107.46387        1.20656
C        121.41160      107.72478       -1.22779
H        123.60838      107.91990        1.28736
H        123.19711      105.67536       -0.70350
H        120.78780      105.90205       -0.27655
H        121.42274      108.36336        1.49852
H        119.80186      107.78841        0.99175
H        120.80093      106.76859        2.06830
H        121.79481      107.21840       -2.13801
H        120.37003      108.05729       -1.42577
H        122.03011      108.62487       -1.03404
N        123.60132      105.37703        2.50248
C        123.46842      104.47732        3.64724
C        124.84331      104.23497        4.30521
O        125.84460      104.71680        3.79743
C        122.40871      105.13264        4.57629
C        121.62813      104.21658        5.49531
N        120.62931      104.73281        6.24888
O        121.83434      103.01318        5.52196
H        124.11060      106.25681        2.65721
H        123.05233      103.50377        3.31137
H        121.61079      105.54749        3.92306
H        122.86027      105.98476        5.12852
H        120.40806      105.73892        6.21039
H        120.05947      104.12364        6.85446
N        124.95067      103.52396        5.46491
C        126.18696      103.29516        6.21356
C        126.27926      101.83036        6.62674
O        125.28208      101.29035        7.08504
C        126.11442      104.13157        7.50766
C        127.24767      103.81690        8.46238
C        126.96503      103.11334        9.64442
C        128.57483      104.19241        8.19046
C        127.98083      102.80026       10.54360
C        129.59513      103.87449        9.09854
C        129.30034      103.17622       10.27592
O        130.28717      102.86810       11.14136
H        124.09483      103.17882        5.90288
H        127.09509      103.61347        5.65467
H        125.14839      103.89167        8.00430
H        126.09742      105.21994        7.27959
H        125.95215      102.80372        9.87043
H        128.81902      104.73374        7.28520
H        127.74056      102.26342       11.44795
H        130.61556      104.16970        8.88948
H        130.11555      102.37588       11.95798
N        127.48351      101.18248        6.65272
C        127.64193       99.85425        7.24264
C        128.55417       99.93711        8.46062
O        129.71763      100.26674        8.27530
C        128.24292       98.86484        6.22845
C        127.32172       98.63354        5.02774
C        127.92567       97.63294        4.08504
O        127.28927       96.47294        3.83457
O        128.99379       97.86492        3.54079
H        128.32585      101.67341        6.31624
H        126.66228       99.45937        7.54136
H        128.40216       97.88773        6.73881
H        129.23066       99.24127        5.87816
H        127.14974       99.58661        4.48381
H        126.34422       98.24874        5.39209
N        128.15489       99.66975        9.74496
C        126.79252       99.37001       10.18868
C        126.20578       98.11270        9.57926
O        126.82666       97.05962        9.61631
C        126.67883       99.29415       11.73135
C        127.53173       98.22595       12.44023
C        127.22773       98.26406       13.91047
O        126.10475       97.99798       14.30996
O        128.17143       98.63608       14.79321
H        128.88074       99.75815       10.47277
H        126.14797      100.23012        9.90442
H        125.60630       99.11914       11.97464
H        126.95400      100.27918       12.15992
H        128.60978       98.43910       12.28329
H        127.31462       97.20551       12.06468
N        124.95639       98.16278        9.03679
C        124.29732       97.00542        8.47965
H        123.27574       97.28558        8.14217
H        124.87125       96.62462        7.61037
H        124.20572       96.21325        9.25283
H        124.43504       99.05328        9.04379
Ca       127.54795       98.92770       16.94489
O        126.08709       96.38842       17.44685
H        125.53294       95.79593       16.87985
H        126.34015       95.82953       18.22388
O        125.40598       99.05053       19.23331
H        124.69434       98.38261       19.06729
H        125.69657       98.87704       20.16359
O        130.29233      100.11545       16.70705
H        131.01566       99.69837       16.17508
H        130.71121      100.32517       17.57920
O        127.46983      101.53343       18.47586
H        126.62091      102.02982       18.36040
H        128.07222      102.17052       18.93534
O        129.54648       96.69513       17.03153
H        128.85821       95.99144       16.92586
H        129.86348       96.87348       16.11093
O        128.59143       98.30934       19.81369
H        129.18463       97.53897       19.62825
H        128.06024       98.02757       20.60004

Ca 1.0



