%chk=apoCaM-CA-Ng.loop3.water4.frame573.chk
%nprocshared=20
%mem=10GB
%nosave
#b3lyp/svp scf=(tight,noincore,xqc) Test 
#IOP(5/87=12) Density=Current Pop=(MK,readradii) iop(6/33=2) iop(6/42=6)

apoCaM-CA-Ng.loop3.water4.frame573 

   0  1 
C         55.33951       -0.26310       56.75503
C         55.04598       -1.20839       55.62586
O         54.44331       -2.24664       55.85764
H         55.88466        0.63693       56.39779
H         54.38661        0.07522       57.21268
H         55.95561       -0.77066       57.52346
N         55.40730       -0.88377       54.35616
C         55.06134       -1.69536       53.19902
C         55.87454       -2.98428       53.15880
O         57.09568       -2.92075       53.14491
C         55.24273       -0.84480       51.92394
C         54.59283       -1.43963       50.71162
O         54.43175       -0.75341       49.71548
O         54.07873       -2.67758       50.74720
H         55.87080        0.02544       54.20049
H         53.97200       -1.91884       53.25970
H         56.30801       -0.59894       51.73528
H         54.69364        0.10483       52.10497
N         55.24487       -4.19450       53.11187
C         55.93295       -5.48390       53.04694
C         56.85640       -5.54952       51.83964
O         58.03054       -5.84698       52.00844
C         54.89412       -6.63897       52.98767
C         55.55959       -8.03024       53.05259
C         54.56434       -9.20606       53.05395
C         53.79039       -9.35397       51.73327
N         52.94770      -10.55105       51.75245
H         54.21693       -4.19643       53.11195
H         56.53120       -5.61647       53.97656
H         54.29066       -6.54243       52.06061
H         54.20823       -6.54751       53.85879
H         56.14228       -8.08586       53.99792
H         56.26487       -8.16507       52.20455
H         53.85388       -9.10251       53.90325
H         55.15256      -10.13716       53.20946
H         54.51234       -9.43643       50.89049
H         53.14961       -8.46433       51.56362
H         53.53767      -11.40561       51.88098
H         52.24632      -10.48863       52.52568
H         52.44125      -10.62985       50.84085
N         56.38325       -5.27315       50.59208
C         57.18300       -5.37670       49.37157
C         57.48737       -4.02157       48.73476
O         58.10839       -4.00188       47.68128
C         56.49351       -6.34530       48.37931
C         55.11857       -5.94630       47.89105
O         54.51331       -4.81733       48.30347
O         54.53499       -6.67381       47.10439
H         55.40281       -4.97232       50.51442
H         58.17709       -5.81957       49.60046
H         56.40349       -7.33792       48.87155
H         57.14970       -6.46709       47.49020
N         57.14158       -2.84728       49.33453
C         57.46121       -1.53176       48.78976
C         56.68413       -1.14662       47.54290
O         56.87539       -0.02841       47.08269
H         56.69548       -2.87504       50.25793
H         58.55306       -1.46525       48.59563
H         57.21511       -0.76771       49.55555
N         55.80064       -1.98816       46.93707
C         55.03305       -1.64832       45.74477
C         53.54876       -1.86181       45.98273
O         53.15879       -2.35695       47.03235
C         55.53416       -2.53147       44.58640
C         56.94320       -2.13656       44.21958
N         57.98922       -2.95427       44.47578
O         57.14170       -1.04785       43.70017
H         55.67251       -2.93489       47.30808
H         55.16663       -0.57756       45.47130
H         54.90405       -2.43123       43.67687
H         55.48828       -3.59585       44.91056
H         57.85011       -3.86242       44.94066
H         58.94806       -2.66139       44.23511
N         52.65274       -1.48983       45.02972
C         51.21922       -1.69131       45.14395
C         50.61786       -0.95733       46.32029
O         50.77111        0.25382       46.39960
H         53.00335       -1.05049       44.16347
H         51.00136       -2.77710       45.20037
H         50.73453       -1.30116       44.22232
N         49.86846       -1.62648       47.24746
C         49.10133       -0.93510       48.27908
C         49.93794       -0.80196       49.57562
O         50.05532       -2.07540       50.13147
C         47.76614       -1.67566       48.56676
C         46.97137       -1.99033       47.32348
C         46.53440       -0.97147       46.46313
C         46.65609       -3.32793       47.02001
C         45.79843       -1.28716       45.31598
C         45.91718       -3.63968       45.87807
C         45.48604       -2.61932       45.02033
O         44.77198       -2.90704       43.91374
H         49.71653       -2.63784       47.11758
H         48.84327        0.07883       47.90183
H         47.14591       -1.06221       49.25463
H         47.98121       -2.63450       49.08528
H         46.76436        0.06407       46.67728
H         46.97846       -4.13402       47.66865
H         45.46900       -0.49471       44.65674
H         45.68097       -4.67452       45.66286
H         44.53350       -3.81540       43.67870
N         49.28432        0.08315       50.55585
C         50.18169        0.76851       51.51694
C         50.72915       -0.18826       52.56619
O         51.58644       -0.99514       52.23536
C         51.36728        1.55594       50.84905
C         52.14024        2.36964       51.93104
C         50.87366        2.48380       49.72368
C         53.43178        3.02026       51.43071
H         48.73134        0.82123       50.06197
H         49.54201        1.51101       52.04543
H         52.06649        0.81882       50.39422
H         52.44852        1.69885       52.75961
H         51.47472        3.15222       52.35746
H         51.71904        3.00526       49.23341
H         50.37869        1.90308       48.92045
H         50.16158        3.23699       50.12096
H         53.24158        3.77156       50.64036
H         53.92657        3.54359       52.27700
H         54.12649        2.24494       51.04505
N         50.32613       -0.10470       53.87171
C         50.97551       -0.84910       54.94610
C         50.06688       -1.92756       55.50304
O         49.87432       -2.00020       56.70972
C         51.42647        0.13310       56.04612
O         52.26345        1.12730       55.51769
H         49.56146        0.53994       54.12349
H         51.87579       -1.37334       54.55867
H         51.97636       -0.40543       56.84690
H         50.53073        0.59259       56.53196
H         51.70130        1.93558       55.37985
N         49.49673       -2.83386       54.66236
C         48.71354       -3.97115       55.12383
C         49.32297       -5.23243       54.54123
O         49.30489       -5.36367       53.32546
C         47.26081       -3.81545       54.67095
H         49.63453       -2.71932       53.64680
H         48.70621       -4.01291       56.22938
H         46.65695       -4.68056       55.01756
H         46.83222       -2.88680       55.10481
H         47.19570       -3.74695       53.56315
N         49.92937       -6.20236       55.28410
C         50.06404       -6.21091       56.73702
C         48.71333       -6.45183       57.39571
O         48.03452       -7.36909       56.95393
C         50.99501       -7.35623       57.15677
H         50.35489       -6.98416       54.75904
H         50.57379       -5.28562       57.05866
H         51.99511       -7.22028       56.69225
H         51.12240       -7.36002       58.26032
H         50.58607       -8.34024       56.84113
N         48.24297       -5.77645       58.48742
C         48.91479       -4.71465       59.22421
C         47.92604       -3.60911       59.55810
O         48.16269       -2.47484       59.16384
C         49.70527       -5.23279       60.46214
C         49.01725       -6.07511       61.55935
C         48.80439       -7.52366       61.19254
O         49.47271       -8.48155       61.86486
O         48.02179       -7.85202       60.31950
H         47.33598       -6.09255       58.86058
H         49.69266       -4.23394       58.60400
H         50.10976       -4.32254       60.95925
H         50.58627       -5.81377       60.11229
H         48.08651       -5.60655       61.92801
H         49.72077       -6.08742       62.42114
N         46.78554       -3.85581       60.26107
C         45.83866       -2.80813       60.57480
H         44.97427       -3.23183       61.12882
H         46.32417       -2.03527       61.20770
H         45.46542       -2.34099       59.63845
H         46.56200       -4.81113       60.57041
Ca        52.12296       -2.84376       49.74232
O         51.07034       -4.90971       47.30116
H         51.19477       -4.89966       46.31949
H         50.36400       -5.58649       47.45184
O         49.60372       -4.87154       50.19775
H         48.97809       -4.41599       50.81491
H         49.02390       -5.43093       49.62407
O         52.28157       -6.39649       49.85094
H         51.61115       -6.73063       50.49829
H         52.23647       -7.03593       49.09644
O         51.83326       -4.39460       52.30403
H         51.89474       -4.50018       53.28598
H         51.23762       -3.61557       52.17990

Ca 1.0



