%chk=apoCaM-CA-Ng.loop2.water2.frame827.chk
%nprocshared=20
%mem=10GB
%nosave
#b3lyp/svp scf=(tight,noincore,xqc) Test 
#IOP(5/87=12) Density=Current Pop=(MK,readradii) iop(6/33=2) iop(6/42=6)

apoCaM-CA-Ng.loop2.water2.frame827 

   -2  1 
C         63.17687       76.53847       85.65801
C         62.93534       75.28961       84.86582
O         62.64463       74.25567       85.45156
H         64.21208       76.89730       85.47439
H         62.45655       77.32348       85.34970
H         63.05855       76.34373       86.74553
N         63.07215       75.30579       83.51057
C         62.92832       74.10035       82.70124
C         61.49539       73.57927       82.65303
O         61.31741       72.47268       82.16196
C         63.43626       74.33556       81.26389
C         64.87250       74.78529       81.25145
O         65.17435       75.86229       80.76252
O         65.83269       74.00252       81.78037
H         63.35540       76.18967       83.05924
H         63.57009       73.31343       83.15987
H         62.79826       75.09914       80.76599
H         63.36884       73.39044       80.68229
N         60.42197       74.30887       83.09494
C         59.05390       73.77671       83.05549
C         57.98644       74.84222       83.35438
O         58.34731       75.94045       83.75282
C         58.94561       72.64310       84.09481
H         60.58519       75.26826       83.42866
H         58.87271       73.41084       82.02161
H         59.68506       71.84120       83.90437
H         59.13599       73.05389       85.11034
H         57.95505       72.16126       84.10513
N         56.63832       74.63304       83.18938
C         56.01609       73.43574       82.62333
C         55.26631       73.77511       81.33800
O         55.25559       74.93486       80.95129
C         55.13997       72.71956       83.68088
C         53.89154       73.42188       84.16120
O         52.81463       72.87313       83.99713
O         53.92466       74.57725       84.85910
H         56.00585       75.40577       83.44805
H         56.79149       72.70931       82.31984
H         55.75899       72.49494       84.57330
H         54.83184       71.74310       83.24733
N         54.69177       72.79554       80.57545
C         54.06430       73.05440       79.28286
C         52.79650       72.24349       79.08002
O         52.81750       71.37908       78.21486
H         54.79971       71.81288       80.86895
H         54.78706       72.71856       78.50700
H         53.88154       74.13264       79.10064
N         51.65068       72.39849       79.80417
C         51.43684       73.38709       80.85104
C         51.26278       74.76816       80.23096
O         50.31225       74.97240       79.48789
C         50.19134       72.96251       81.66706
C         49.92374       73.74491       82.92020
N         48.89235       73.37827       83.71591
O         50.63545       74.68294       83.23764
H         50.88553       71.73227       79.60527
H         52.30492       73.35479       81.53864
H         50.34679       71.91012       81.99210
H         49.28617       72.99518       81.02185
H         48.29466       72.57830       83.46394
H         48.68832       73.87582       84.59025
N         52.17884       75.75098       80.45565
C         52.13376       77.05363       79.80817
C         51.18761       78.03100       80.46861
O         51.03700       79.12457       79.94287
H         52.99081       75.53425       81.03914
H         51.88070       76.92103       78.73304
H         53.14288       77.51671       79.85254
N         50.54082       77.73287       81.62991
C         49.61327       78.63803       82.29809
C         50.11505       78.98610       83.69514
O         51.15848       78.49877       84.10663
C         48.21257       77.97299       82.33686
C         47.67485       77.74161       80.92265
O         48.26596       76.73678       82.99837
H         50.69891       76.81983       82.07121
H         49.52346       79.59888       81.74608
H         47.47663       78.63845       82.84203
H         48.28727       76.93757       83.96687
H         48.33910       77.05878       80.35109
H         46.66546       77.28181       80.97396
H         47.59734       78.70761       80.38009
N         49.39263       79.82679       84.48855
C         49.75767       80.17789       85.85701
C         48.76658       79.48096       86.76381
O         47.56556       79.65999       86.61256
C         49.79696       81.72114       86.03046
C         49.98008       82.18131       87.50431
C         50.89137       82.32365       85.12877
C         51.27370       81.72720       88.18774
H         48.50425       80.20429       84.12567
H         50.77144       79.79287       86.10179
H         48.81817       82.13301       85.69815
H         49.12279       81.81381       88.10809
H         49.94679       83.29267       87.53481
H         50.70353       82.07404       84.06354
H         50.90778       83.42971       85.22326
H         51.89379       81.92705       85.39674
H         51.33213       80.62377       88.23182
H         52.16858       82.12294       87.66720
H         51.28838       82.11214       89.22990
N         49.23007       78.60127       87.69136
C         48.40212       77.68891       88.45890
C         48.46252       77.97667       89.94636
O         47.85842       77.22975       90.70293
C         48.88273       76.25521       88.13263
C         48.66497       75.97914       86.67039
O         47.52667       76.03596       86.23172
O         49.66692       75.68110       85.81165
H         50.24532       78.51661       87.82748
H         47.32918       77.77968       88.17390
H         48.29615       75.51168       88.71442
H         49.95750       76.13945       88.39314
N         49.11173       79.07375       90.43565
C         49.13474       79.43212       91.84358
C         50.57739       79.60578       92.30638
O         51.24395       80.46557       91.74694
C         48.39887       80.77846       92.03465
C         48.53696       81.27195       93.45768
C         49.34554       82.38973       93.72974
C         47.90875       80.60339       94.52155
C         49.53387       82.82235       95.04349
C         48.09128       81.04758       95.83583
C         48.90719       82.15263       96.09640
H         49.57938       79.72158       89.78779
H         48.59807       78.67457       92.43799
H         47.32592       80.69688       91.75453
H         48.85979       81.51836       91.34265
H         49.85190       82.91155       92.92691
H         47.28353       79.73948       94.33429
H         50.17262       83.67284       95.24376
H         47.60725       80.53085       96.65409
H         49.05733       82.48903       97.11383
N         51.12054       78.92006       93.36524
C         52.37927       79.31653       93.98854
C         53.63264       79.25303       93.13290
O         54.67752       79.64151       93.63833
C         52.50534       78.37937       95.19307
C         51.05477       78.15489       95.56031
C         50.43129       77.94232       94.18836
H         52.23659       80.36418       94.34042
H         52.90784       77.39622       94.85619
H         53.14669       78.77003       96.01187
H         50.87228       77.32995       96.28086
H         50.65134       79.10336       95.98551
H         50.67517       76.92571       93.80504
H         49.33845       78.07373       94.28963
N         53.63565       78.77741       91.85234
C         54.86137       78.71061       91.05812
C         55.47920       80.07683       90.77157
O         56.60272       80.10335       90.28800
C         54.62973       77.96670       89.72390
C         53.68329       78.71550       88.76557
C         53.53439       77.97303       87.47290
O         54.50539       77.76097       86.76448
O         52.32262       77.55368       87.07763
H         52.76403       78.40174       91.45564
H         55.59421       78.11677       91.64953
H         54.21866       76.95775       89.94177
H         55.61312       77.83096       89.22139
H         54.08305       79.72538       88.53336
H         52.68418       78.83632       89.23412
N         54.80334       81.24259       90.99255
C         55.35559       82.54970       90.69685
H         56.39303       82.49656       90.30464
H         54.72154       83.05106       89.93553
H         55.36277       83.16342       91.62115
H         53.84229       81.22274       91.35881
Ca        51.89577       75.18346       85.73527
O         53.49061       77.14853       83.23029
H         54.20562       76.80477       82.64068
H         53.87645       77.96688       83.63132
O         53.20374       74.25370       88.27625
H         53.23682       74.98172       88.94566
H         54.07407       74.30758       87.80711

Ca 1.0



