%chk=apoCaM-CA-Ng.loop1.water4.frame165.chk
%nprocshared=20
%mem=10GB
%nosave
#b3lyp/svp scf=(tight,noincore,xqc) Test 
#IOP(5/87=12) Density=Current Pop=(MK,readradii) iop(6/33=2) iop(6/42=6)

apoCaM-CA-Ng.loop1.water4.frame165 

   0  1 
C         86.65385       45.83801       50.14338
C         87.54565       46.70281       49.29669
O         88.25198       46.17277       48.45403
H         85.92946       45.29702       49.49985
H         87.27217       45.09889       50.69551
H         86.08713       46.43880       50.88623
N         87.55944       48.05528       49.46119
C         88.41165       48.95617       48.68153
C         89.90661       48.85736       49.03187
O         90.68305       49.59726       48.44376
C         87.93278       50.42505       48.81175
C         88.03287       51.00851       50.19605
O         87.25606       50.54259       51.19115
O         88.77575       51.95368       50.40828
H         86.89152       48.45144       50.13524
H         88.27828       48.70750       47.60635
H         86.87626       50.50345       48.47621
H         88.54251       51.04557       48.11805
N         90.38390       47.99173       49.97334
C         91.77647       47.92943       50.41778
C         92.37624       46.56648       50.10809
O         91.73608       45.57828       50.43990
C         91.80684       48.15906       51.93529
C         91.54468       49.63461       52.28936
C         91.36013       49.82291       53.80616
C         89.96667       49.37995       54.30018
N         88.93421       50.35162       53.92900
H         89.73223       47.35094       50.44436
H         92.38112       48.71879       49.96354
H         92.81012       47.90345       52.34476
H         91.07306       47.47093       52.40335
H         90.67872       50.04377       51.73463
H         92.43957       50.20581       51.95723
H         91.49154       50.89146       54.07986
H         92.15529       49.24486       54.32532
H         89.98225       49.31218       55.40853
H         89.70576       48.37294       53.91132
H         89.09544       51.24961       54.44079
H         88.94757       50.54699       52.90901
H         87.99189       49.98103       54.18768
N         93.61508       46.37643       49.54667
C         94.60037       47.39295       49.16984
C         94.97290       48.28739       50.35382
O         94.69879       49.47923       50.29932
C         94.18664       48.23223       47.93202
C         93.87647       47.43496       46.70163
O         94.54647       47.59063       45.69473
O         92.78781       46.64974       46.64424
H         93.92173       45.39772       49.42423
H         95.52539       46.86922       48.85838
H         95.04335       48.90434       47.70153
H         93.31586       48.88234       48.11291
N         95.62414       47.83658       51.46341
C         96.15308       46.48771       51.62312
C         96.91619       46.32152       52.93713
O         96.88355       47.21752       53.76903
H         95.80360       48.53756       52.19792
H         96.86973       46.31487       50.79337
H         95.33967       45.73465       51.56992
N         97.68831       45.22902       53.20726
C         97.92162       44.13246       52.27536
C         99.15860       44.41005       51.43760
O         99.84107       45.40017       51.66870
C         97.98160       42.76627       53.00922
C         99.12229       42.61427       53.99060
O         99.18248       43.36606       55.10628
O         99.97406       41.75973       53.80547
H         98.24588       45.26633       54.07127
H         97.07347       44.07032       51.56239
H         98.07290       41.96420       52.24544
H         97.02715       42.59420       53.55069
N         99.48336       43.58456       50.40346
C        100.62460       43.81145       49.53290
C        100.48768       45.01530       48.61488
O        101.42597       45.25097       47.86662
H         98.91149       42.74432       50.23217
H        100.74941       42.92550       48.87312
H        101.54267       43.90601       50.15231
N         99.37099       45.80462       48.57807
C         99.22028       46.92963       47.66035
C         99.08879       48.23118       48.43484
O         98.31959       48.31422       49.38253
C         98.01293       46.72931       46.71865
C         98.13742       45.45244       45.88845
O         97.94743       47.81532       45.83018
H         98.57642       45.60196       49.19938
H        100.10513       47.01491       46.99172
H         97.08881       46.66616       47.33008
H         96.99164       48.03586       45.69303
H         97.26177       45.36597       45.21256
H         99.05716       45.48769       45.26600
H         98.16734       44.55663       46.54150
N         99.77863       49.32104       48.00165
C         99.72501       50.65497       48.59359
C         98.95942       51.60359       47.67213
O         99.06006       52.81053       47.82749
C        101.18126       51.16941       48.84355
C        101.98768       51.33158       47.51760
C        101.89830       50.23971       49.83819
C        103.35469       51.98830       47.69634
H        100.32441       49.21241       47.13573
H         99.18649       50.64987       49.56783
H        101.10178       52.17246       49.31927
H        101.41783       51.98093       46.81963
H        102.14901       50.35297       47.02214
H        101.30860       50.15863       50.77575
H        102.02543       49.22327       49.40799
H        102.89574       50.63673       50.11216
H        103.24324       52.99061       48.15999
H        104.02711       51.36052       48.31379
H        103.83029       52.11022       46.69937
N         98.17196       51.10059       46.67932
C         97.55565       51.88465       45.62599
C         96.05215       51.76323       45.74900
O         95.55565       50.64809       45.79175
C         98.03472       51.31919       44.26578
C         99.56870       51.28346       44.17196
O         97.51338       52.10366       43.22526
H         98.01885       50.09043       46.62603
H         97.85781       52.95307       45.69014
H         97.66208       50.27123       44.16978
H         97.61347       51.57345       42.39137
H         99.87801       50.85966       43.19372
H         99.99447       52.30223       44.28089
H         99.99616       50.62824       44.96154
N         95.26039       52.87409       45.78705
C         93.80872       52.79244       45.93491
C         93.12439       53.11735       44.62617
O         93.78681       53.46306       43.65824
C         93.31582       53.71764       47.08414
C         93.44305       55.21869       46.76234
O         94.02560       53.41615       48.25697
H         95.69681       53.79903       45.66824
H         93.51089       51.75300       46.19268
H         92.23469       53.50701       47.25217
H         93.51482       53.81004       49.01234
H         94.49742       55.51500       46.59452
H         92.84676       55.47895       45.86161
H         93.04036       55.81880       47.60574
N         91.76718       53.04820       44.55140
C         91.01195       53.42972       43.37012
C         90.05447       52.31647       42.99737
O         88.88267       52.57864       42.78378
C         90.35879       54.81139       43.63478
C         89.41819       54.84780       44.86080
C         89.14366       56.28641       45.31079
C         88.28423       56.30636       46.58394
N         88.16744       57.66370       47.11453
H         91.24589       52.74912       45.38626
H         91.69796       53.56478       42.50524
H         89.82330       55.18418       42.73455
H         91.20629       55.50621       43.82837
H         89.90154       54.36269       45.72917
H         88.47294       54.30745       44.64037
H         88.64762       56.86575       44.50283
H         90.12172       56.76342       45.54511
H         88.75308       55.66411       47.36380
H         87.27428       55.89847       46.35767
H         87.56813       57.64614       47.97110
H         89.11456       58.02246       47.37894
H         87.73573       58.29692       46.40390
N         90.51662       51.03313       42.90154
C         89.70380       49.87003       42.54097
C         88.55288       49.67250       43.52402
O         88.70769       48.94835       44.49330
C         90.62985       48.61724       42.43277
C         89.89558       47.35197       41.96325
C         90.83859       46.24755       41.53960
O         90.80536       45.86614       40.38037
O         91.71767       45.65398       42.37708
H         91.51925       50.87904       43.09188
H         89.27500       50.04210       41.52898
H         91.14083       48.41317       43.40052
H         91.41147       48.86238       41.67997
H         89.28627       47.62404       41.07366
H         89.20902       46.98219       42.75284
N         87.35794       50.30256       43.32976
C         86.22935       50.18282       44.23212
H         85.34812       49.81282       43.66817
H         86.42693       49.48653       45.07388
H         85.98851       51.18147       44.65524
H         87.22923       50.90772       42.50677
Ca        92.22524       46.00431       44.55116
O         89.12242       44.49788       44.62615
H         88.56327       44.81694       45.37873
H         88.53664       43.87365       44.12918
O         90.05922       47.34778       46.27306
H         90.67218       48.11482       46.14624
H         89.96443       46.95287       45.37179
O         90.83193       44.39033       47.46190
H         91.67966       44.30786       47.96515
H         90.47718       45.27131       47.73492
O         94.80788       44.34521       44.14473
H         94.93729       45.25562       44.50996
H         95.25059       44.37149       43.25983

Ca 1.0



