%chk=apoCaM-CA-Ng.loop4.water3.frame269.chk
%nprocshared=20
%mem=10GB
%nosave
#b3lyp/svp scf=(tight,noincore,xqc) Test 
#IOP(5/87=12) Density=Current Pop=(MK,readradii) iop(6/33=2) iop(6/42=6)

apoCaM-CA-Ng.loop4.water3.frame269 

   -3  1 
C         50.75499       26.61364       12.22963
C         52.04344       25.93608       12.57387
O         52.19127       25.51290       13.70636
H         50.08639       26.64714       13.11811
H         50.95478       27.65074       11.89240
H         50.24372       26.04727       11.42413
N         53.01366       25.76861       11.62992
C         54.27739       25.07981       11.86916
C         54.06067       23.65890       12.32621
O         54.41935       23.32777       13.44099
C         55.29643       25.88689       12.71560
C         54.90898       26.56018       14.01807
O         54.43242       25.93945       15.12356
O         55.11763       27.76026       14.10529
H         52.82689       26.10539       10.67309
H         54.80669       24.96887       10.89391
H         55.65276       26.70593       12.04851
H         56.18274       25.24184       12.89546
N         53.49793       22.76390       11.46006
C         53.28966       21.33151       11.68048
C         54.61739       20.56634       11.64406
O         54.80744       19.80691       10.70298
C         52.38358       21.04784       12.90951
C         52.04756       19.54137       13.07300
C         51.09118       21.88305       12.81298
C         51.22924       18.92603       11.93103
H         53.19153       23.12727       10.54347
H         52.72527       20.97983       10.78828
H         52.91794       21.35552       13.83305
H         51.46438       19.40804       14.01002
H         52.99100       18.96602       13.18388
H         50.41994       21.65874       13.66090
H         51.31957       22.96839       12.83733
H         50.54411       21.67592       11.86993
H         50.23760       19.41593       11.83805
H         51.76401       18.98364       10.96302
H         51.05629       17.85497       12.14759
N         55.60637       20.74629       12.56863
C         56.93706       20.17436       12.40978
C         56.94218       18.66332       12.61798
O         57.32534       17.98098       11.67783
C         57.98917       20.92620       13.26143
C         58.06709       22.38236       12.87753
O         57.84124       23.33628       13.79965
O         58.34733       22.70704       11.73418
H         55.45865       21.36985       13.36326
H         57.26706       20.36562       11.36105
H         58.98996       20.47487       13.08733
H         57.76853       20.87658       14.33913
N         56.55203       18.01838       13.76070
C         56.05665       18.66304       14.97313
C         55.71432       17.66768       16.08208
O         55.80292       16.47124       15.84528
H         56.62349       16.99024       13.73894
H         55.14825       19.24848       14.72483
H         56.84601       19.31007       15.35292
N         55.29365       18.03329       17.33545
C         55.13528       19.38049       17.88107
C         54.15131       20.17642       17.03365
O         54.54236       21.17509       16.44577
C         56.51594       20.05723       18.08753
C         56.47883       21.22619       19.03775
O         57.51413       21.81665       19.30116
O         55.33478       21.60194       19.64115
H         55.05494       17.26536       17.98328
H         54.72286       19.26899       18.90752
H         56.95313       20.40101       17.13449
H         57.20576       19.31307       18.54081
N         52.86112       19.77087       16.84700
C         52.21311       18.68528       17.56154
C         52.16048       17.42574       16.74744
O         52.71058       17.37281       15.65557
H         52.28341       20.27443       16.16080
H         51.19026       19.01380       17.84793
H         52.73804       18.44107       18.50513
N         51.51893       16.34005       17.25466
C         51.53600       15.03090       16.62389
C         50.19720       14.67802       15.99983
O         50.09389       13.58491       15.46667
C         51.98868       13.97651       17.65771
C         53.42487       14.24867       18.14834
C         53.91853       13.23567       19.15384
N         55.17610       13.33635       19.64354
O         53.19634       12.32394       19.53105
H         51.00954       16.44004       18.14854
H         52.25894       15.00652       15.77811
H         51.97031       12.96856       17.18844
H         51.28528       13.97624       18.52056
H         53.47955       15.25342       18.61926
H         54.10942       14.22992       17.27249
H         55.80113       14.09551       19.33443
H         55.52869       12.65256       20.32979
N         49.16148       15.57334       15.94448
C         47.92365       15.29440       15.21116
C         46.70075       15.29818       16.10259
O         45.64629       14.89592       15.61891
C         47.76576       16.26372       14.01100
C         48.93747       16.08762       13.03673
C         47.64804       17.73867       14.43716
H         49.26781       16.49928       16.37547
H         47.96236       14.26486       14.79444
H         46.83472       15.99112       13.46546
H         48.99567       15.03248       12.69351
H         48.79873       16.73468       12.14569
H         49.89832       16.35060       13.52822
H         48.56754       18.09369       14.94747
H         47.49007       18.37827       13.54308
H         46.78183       17.88136       15.11687
N         46.74780       15.68136       17.40643
C         45.63751       15.49388       18.32278
C         45.14116       16.82213       18.85427
O         43.97096       17.12376       18.67860
C         46.10912       14.56335       19.45930
C         46.62374       13.25953       18.89328
N         47.93251       12.92684       19.00271
O         45.85669       12.51159       18.30517
H         47.62286       16.05528       17.80459
H         44.77937       14.99366       17.81687
H         45.28492       14.35922       20.17605
H         46.93063       15.05979       20.01839
H         48.60247       13.55335       19.47310
H         48.28575       12.04873       18.59442
N         45.96799       17.63945       19.56802
C         45.49095       18.82621       20.27464
C         46.41894       20.02298       20.11925
O         47.52477       19.89877       19.61423
C         45.28372       18.45093       21.76562
C         46.42839       17.60960       22.30098
C         46.19386       16.26161       22.63251
C         47.73310       18.12035       22.40975
C         47.24353       15.43691       23.03963
C         48.78344       17.29102       22.81786
C         48.54491       15.94706       23.12593
O         49.57149       15.15488       23.49485
H         46.93610       17.33185       19.73445
H         44.50784       19.15059       19.86671
H         44.35994       17.83171       21.80095
H         45.09133       19.34211       22.40015
H         45.20117       15.83594       22.54975
H         47.94660       19.14985       22.16094
H         47.04481       14.39801       23.27205
H         49.78759       17.69030       22.88025
H         49.44891       14.21563       23.69511
N         45.97463       21.24431       20.54824
C         46.72649       22.50028       20.56871
C         47.13518       23.03250       19.18680
O         47.70036       24.11374       19.12352
C         47.91667       22.37759       21.54530
C         48.40348       23.74547       22.06088
C         49.54996       23.58781       23.01448
O         50.61828       24.13039       22.78139
O         49.40363       22.86105       24.13877
H         45.01801       21.28980       20.93222
H         46.03237       23.25610       21.00364
H         48.73948       21.80180       21.06941
H         47.57041       21.81536       22.44152
H         47.56749       24.25018       22.59535
H         48.72659       24.40079       21.23037
N         46.83475       22.37158       18.03415
C         47.12594       22.88364       16.70014
C         45.80106       23.21726       16.04595
O         45.61031       24.36047       15.65303
C         47.92389       21.84418       15.87914
C         49.37087       21.61039       16.37490
C         50.33163       22.75474       16.10792
O         49.95667       23.79136       15.58265
O         51.64386       22.59315       16.38284
H         46.31328       21.48975       18.07994
H         47.71632       23.82437       16.73725
H         47.97797       22.15676       14.81266
H         47.37534       20.87731       15.91283
H         49.76821       20.73566       15.81635
H         49.37314       21.35023       17.45468
N         44.80854       22.28862       15.95125
C         43.50044       22.61839       15.43085
H         42.83289       21.73326       15.49737
H         43.05261       23.43760       16.03535
H         43.57887       22.93818       14.37160
H         44.96318       21.32941       16.29456
Ca        53.22642       24.13835       15.84586
O         56.44349       24.00977       16.67470
H         56.93332       23.26129       17.09645
H         56.14590       23.64613       15.80399
O         52.22247       26.48543       17.49691
H         53.14620       26.60532       17.83318
H         52.24541       26.84777       16.57567
O         53.71113       23.95082       18.79778
H         53.35411       24.40976       19.59858
H         54.69357       23.97912       18.91428

Ca 1.0



