%chk=apoCaM-CA-Ng.loop3.water3.frame683.chk
%nprocshared=20
%mem=10GB
%nosave
#b3lyp/svp scf=(tight,noincore,xqc) Test 
#IOP(5/87=12) Density=Current Pop=(MK,readradii) iop(6/33=2) iop(6/42=6)

apoCaM-CA-Ng.loop3.water3.frame683 

   0  1 
C         81.66932       70.53369       90.69331
C         81.70827       71.18757       92.04135
O         81.26979       72.31992       92.17917
H         82.69546       70.25863       90.37507
H         81.05190       69.61069       90.76012
H         81.21351       71.20638       89.93740
N         82.18137       70.48882       93.10559
C         82.10601       70.97941       94.47946
C         83.06448       72.14707       94.71510
O         83.96214       72.33030       93.90489
C         82.39583       69.78196       95.40819
C         81.88169       69.87660       96.80153
O         82.12133       68.95892       97.56263
O         81.08648       70.87349       97.21715
H         82.50962       69.52536       92.92880
H         81.07031       71.32404       94.63107
H         83.49028       69.58303       95.40769
H         81.89366       68.87508       95.01137
N         82.91434       73.00201       95.77804
C         83.80805       74.14222       96.01243
C         84.52875       74.05911       97.36231
O         85.51841       74.76470       97.51658
C         83.04508       75.47444       95.83222
C         82.40824       75.55906       94.42905
C         81.63188       76.86305       94.20290
C         80.94599       76.84448       92.82528
N         80.17584       78.06613       92.59459
H         82.11171       72.88079       96.40649
H         84.61860       74.13049       95.25149
H         83.74974       76.32587       95.96296
H         82.24843       75.55346       96.60363
H         81.69936       74.71268       94.30513
H         83.20322       75.47208       93.65524
H         82.32631       77.72964       94.26613
H         80.85337       76.96801       94.98929
H         80.25852       75.97114       92.77022
H         81.71066       76.73592       92.02384
H         80.81008       78.89737       92.59264
H         79.70226       77.99959       91.66415
H         79.44549       78.17724       93.33496
N         84.14435       73.20513       98.36048
C         84.94943       72.92499       99.55593
C         85.31315       71.43907       99.64188
O         86.04386       71.07352      100.54973
C         84.24773       73.40058      100.85441
C         82.85645       72.86036      100.99646
O         82.62213       71.53966      100.97136
O         81.91063       73.62995      101.02109
H         83.25971       72.68853       98.25960
H         85.91698       73.47145       99.50459
H         84.19027       74.51084      100.83306
H         84.85419       73.11261      101.74028
N         84.86143       70.52718       98.72853
C         85.22043       69.12227       98.74785
C         84.75240       68.39986       99.98985
O         85.57875       67.76628      100.63163
H         84.26157       70.82015       97.94954
H         86.32134       69.01945       98.63026
H         84.74832       68.62480       97.87242
N         83.43444       68.38621      100.34984
C         82.91190       67.56097      101.43753
C         81.38770       67.54109      101.46871
O         80.75304       68.53454      101.13835
C         83.46887       67.97378      102.82454
C         82.98602       69.32715      103.29711
N         83.85050       70.34951      103.48578
O         81.80008       69.49561      103.53697
H         82.77505       68.93100       99.78478
H         83.24351       66.51878      101.22853
H         84.57554       67.95792      102.80086
H         83.16064       67.22005      103.58106
H         84.85571       70.23766      103.29442
H         83.50656       71.26349      103.81701
N         80.73983       66.43967      101.93682
C         79.30570       66.37458      102.15937
C         78.49343       66.63022      100.91020
O         78.67388       65.93604       99.91996
H         81.29701       65.61235      102.20125
H         79.03328       67.10592      102.95126
H         79.05136       65.36275      102.54211
N         77.52762       67.59414      100.91996
C         76.64118       67.86930       99.78932
C         77.39057       68.48334       98.61834
O         78.58201       68.73530       98.72793
C         75.51038       68.82993      100.23540
C         74.64429       68.22359      101.31472
C         73.88140       67.07351      101.04726
C         74.58030       68.80563      102.59203
C         73.07255       66.51420      102.04009
C         73.77189       68.24260      103.58490
C         73.01571       67.09725      103.31375
O         72.23891       66.56854      104.28072
H         77.38103       68.11924      101.79617
H         76.18493       66.91408       99.44996
H         74.84304       69.08633       99.38641
H         75.97359       69.77585      100.59096
H         73.90759       66.61186      100.06827
H         75.15699       69.69284      102.82203
H         72.48969       65.62930      101.81714
H         73.73220       68.69837      104.56623
H         71.69867       65.77916      104.13236
N         76.72200       68.74699       97.45177
C         77.30192       69.36190       96.25825
C         77.68927       70.81214       96.54235
O         78.36525       71.07197       97.52497
C         78.46772       68.51536       95.66409
C         78.98360       69.08827       94.31571
C         78.06425       67.03910       95.49490
C         77.98055       69.12145       93.15696
H         75.72719       68.48367       97.39207
H         76.50312       69.37429       95.48762
H         79.32346       68.53570       96.37123
H         79.85457       68.48502       93.98200
H         79.32192       70.12273       94.48267
H         77.18847       66.93403       94.82234
H         78.91350       66.45545       95.07930
H         77.80131       66.58899       96.47464
H         77.62420       68.10446       92.90076
H         77.11103       69.76681       93.38194
H         78.48204       69.54510       92.26084
N         77.31753       71.81200       95.69075
C         77.62615       73.22398       95.92213
C         76.43114       74.15382       95.67849
O         76.57662       75.34542       95.91330
C         78.79559       73.63470       95.01869
O         78.44736       73.46325       93.67245
H         76.87133       71.54365       94.80413
H         77.95670       73.37127       96.97305
H         79.66792       72.99459       95.27006
H         79.07014       74.69656       95.20731
H         79.26999       73.64577       93.15114
N         75.24673       73.70869       95.16081
C         74.13432       74.59083       94.81376
C         73.49137       75.19491       96.05770
O         73.31991       74.46000       97.02012
C         73.07765       73.80455       94.03703
H         75.13379       72.71218       94.94096
H         74.52129       75.36284       94.11987
H         73.53080       73.38123       93.11435
H         72.66373       72.97745       94.65077
H         72.25672       74.48100       93.73612
N         73.09721       76.50317       96.15926
C         73.12739       77.48667       95.08133
C         71.88584       78.38787       95.12134
O         71.65122       78.98982       96.16009
C         74.37781       78.35285       95.22299
H         72.74585       76.82016       97.07700
H         73.20561       76.98161       94.11037
H         74.38147       78.89409       96.19233
H         75.28466       77.71494       95.16385
H         74.41932       79.09096       94.39254
N         71.06600       78.60961       94.04489
C         71.25557       77.99729       92.73576
C         70.72891       76.57109       92.70702
O         71.01524       75.87039       91.74612
C         70.59963       78.81677       91.60355
C         71.12741       80.26108       91.56200
C         70.69875       80.96427       90.30719
O         69.51490       81.11308       90.05089
O         71.62975       81.43603       89.45504
H         70.30089       79.29376       94.15859
H         72.33889       78.01212       92.49505
H         69.49126       78.82487       91.70379
H         70.86005       78.32055       90.64137
H         72.23830       80.25099       91.58865
H         70.76125       80.82776       92.44482
N         69.92324       76.08248       93.69789
C         69.39309       74.73360       93.70663
H         68.28429       74.77204       93.66124
H         69.75965       74.12650       92.85282
H         69.69553       74.22979       94.64847
H         69.63947       76.68827       94.48088
Ca        81.05455       71.12345       99.43747
O         77.74333       72.26660       99.99009
H         77.31976       72.95566       99.41942
H         77.02128       71.96986      100.59785
O         79.31113       71.25516      102.33605
H         79.30901       71.84073      103.13388
H         80.26975       71.11461      102.13906
O         80.22103       73.97017       98.63002
H         81.04075       74.50728       98.76893
H         79.49831       74.64108       98.54823

Ca 1.0



