%chk=apoCaM-CA-Ng.loop4.water4.frame166.chk
%nprocshared=20
%mem=10GB
%nosave
#b3lyp/svp scf=(tight,noincore,xqc) Test 
#IOP(5/87=12) Density=Current Pop=(MK,readradii) iop(6/33=2) iop(6/42=6)

apoCaM-CA-Ng.loop4.water4.frame166 

   -3  1 
C         65.04153       60.99654       20.34858
C         64.19226       60.73696       19.14372
O         64.06985       59.58885       18.75344
H         65.86108       61.69693       20.09035
H         64.41286       61.43506       21.15158
H         65.48168       60.04713       20.72597
N         63.53583       61.76060       18.52532
C         62.62232       61.58518       17.40006
C         61.49485       60.65492       17.77348
O         61.31812       59.65564       17.11563
C         63.34111       61.25929       16.05434
C         64.41062       60.18124       15.98532
O         64.20952       58.85815       16.20000
O         65.53995       60.52948       15.67770
H         63.63690       62.71037       18.91454
H         62.11950       62.55984       17.20362
H         63.85213       62.20686       15.76704
H         62.57653       61.07317       15.26898
N         60.66507       60.98107       18.80841
C         59.51600       60.22224       19.31699
C         58.44942       60.01537       18.24002
O         57.43538       60.69759       18.28233
C         59.93572       58.91250       20.05153
C         58.74493       58.21989       20.77383
C         61.07826       59.17833       21.04740
C         58.10749       59.02718       21.91444
H         60.85613       61.87500       19.28794
H         59.07001       60.88404       20.09044
H         60.33374       58.19060       19.30899
H         59.10939       57.26706       21.21283
H         57.95601       57.96715       20.03379
H         61.33880       58.24653       21.58297
H         61.98607       59.52386       20.51477
H         60.80197       59.95014       21.79343
H         57.66526       59.97465       21.54793
H         57.29234       58.43162       22.37588
H         58.84626       59.24949       22.71190
N         58.61300       59.10214       17.23973
C         57.71541       58.96325       16.10543
C         56.52454       58.05865       16.44514
O         55.41138       58.55749       16.36313
C         58.53946       58.57466       14.84901
C         57.70397       58.46704       13.60764
O         57.66554       57.30920       12.92057
O         57.08069       59.43339       13.19885
H         59.43636       58.49599       17.24702
H         57.31363       59.97240       15.85473
H         59.09601       57.63510       14.99328
H         59.31552       59.35347       14.67818
N         56.61725       56.75189       16.84776
C         57.87534       56.03939       16.98575
C         57.75924       54.60827       17.45981
O         56.66448       54.20193       17.82334
H         55.73493       56.25987       17.05523
H         58.47569       56.56730       17.73851
H         58.32047       56.00544       15.99656
N         58.81927       53.73428       17.50920
C         60.21204       53.89781       17.05419
C         61.05306       54.96435       17.80158
O         60.70606       56.27790       17.49608
C         60.33733       54.11360       15.52684
C         59.57398       53.08762       14.74012
O         59.86393       51.77942       14.87055
O         58.69506       53.43746       13.96822
H         58.60251       52.79305       17.87532
H         60.72428       52.92804       17.23550
H         61.40932       54.04789       15.24119
H         60.01267       55.12187       15.22389
N         61.35206       54.81342       19.23926
C         60.87055       53.66369       20.01623
C         59.51116       53.89076       20.63429
O         58.85408       54.87673       20.33469
H         61.28253       55.71133       19.77238
H         61.58153       53.53715       20.86018
H         60.89836       52.71886       19.43830
N         59.05244       53.00406       21.56101
C         57.77399       53.13006       22.25169
C         57.93621       53.45302       23.73909
O         56.91728       53.61563       24.39579
C         56.86709       51.90731       21.94259
C         57.47976       50.49160       22.01524
C         57.95002       50.05182       23.37321
N         57.41866       48.96155       23.97381
O         58.85330       50.65472       23.92038
H         59.66124       52.21034       21.81192
H         57.21228       54.01153       21.86860
H         56.55597       52.01930       20.88009
H         55.94032       51.96117       22.55447
H         58.32924       50.41523       21.30445
H         56.70193       49.78302       21.65692
H         56.66782       48.41890       23.52412
H         57.77126       48.64639       24.88907
N         59.15964       53.67766       24.31364
C         59.32760       54.20642       25.67361
C         60.13156       53.29285       26.59249
O         60.29248       53.65611       27.75066
C         59.95693       55.63240       25.62678
C         58.98214       56.64260       25.00533
C         61.30277       55.67650       24.88345
H         60.00884       53.54602       23.74891
H         58.34043       54.30913       26.17637
H         60.13307       55.96996       26.67288
H         58.74750       56.38132       23.95231
H         58.03711       56.66461       25.59019
H         59.41984       57.66370       25.03239
H         61.73561       56.69703       24.95097
H         62.02423       54.96122       25.33041
H         61.17883       55.44066       23.80553
N         60.61756       52.08564       26.19031
C         61.29867       51.15808       27.08895
C         62.67343       50.74326       26.57105
O         63.32391       49.96531       27.25423
C         60.41810       49.89661       27.24657
C         59.04213       50.21098       27.78527
N         58.88046       50.74638       29.01696
O         58.05883       49.96786       27.10264
H         60.45014       51.77439       25.22861
H         61.44595       51.61114       28.09324
H         60.90229       49.16799       27.93238
H         60.31049       49.41302       26.25107
H         59.69233       50.95000       29.61639
H         57.93543       50.95089       29.37536
N         63.16733       51.16644       25.36690
C         64.34046       50.55832       24.74034
C         64.98781       51.51381       23.76019
O         64.27130       52.01533       22.90803
C         63.89294       49.34383       23.89219
C         63.24785       48.24178       24.68667
C         63.97957       47.53573       25.65468
C         61.90658       47.89887       24.45019
C         63.37479       46.50471       26.37863
C         61.30403       46.86954       25.17538
C         62.03361       46.16850       26.14042
O         61.43799       45.17465       26.82861
H         62.59660       51.79229       24.78377
H         65.08242       50.22719       25.49998
H         64.77205       48.91273       23.36357
H         63.18036       49.70273       23.11524
H         65.01673       47.78199       25.84620
H         61.32400       48.43000       23.70710
H         63.94994       45.96745       27.12176
H         60.26864       46.61770       24.98451
H         61.90884       44.66120       27.50009
N         66.34923       51.68200       23.73428
C         67.10121       52.38281       22.68540
C         67.11674       53.89352       22.86171
O         68.19950       54.46245       22.90769
C         66.65343       51.93287       21.26905
C         67.54250       52.47915       20.14516
C         67.09458       51.93362       18.81718
O         67.11668       50.60540       18.59071
O         66.71107       52.68825       17.93776
H         66.90708       51.15648       24.42422
H         68.16311       52.05648       22.77825
H         65.61819       52.25756       21.04588
H         66.69148       50.82093       21.24206
H         68.59844       52.17962       20.31319
H         67.48305       53.58951       20.13156
N         65.96868       54.61615       22.94703
C         65.92856       56.07215       23.00899
C         66.57295       56.64881       24.26819
O         66.66506       57.86635       24.35485
C         64.46490       56.57377       22.90973
C         63.65035       56.03006       21.71313
C         64.25323       56.34196       20.37517
O         65.43505       55.80700       20.01547
O         63.64214       57.03360       19.58040
H         65.08438       54.11542       22.92154
H         66.49265       56.46526       22.13690
H         64.46508       57.68517       22.86002
H         63.92783       56.27331       23.83462
H         62.63739       56.46985       21.77635
H         63.50366       54.93483       21.77380
N         67.04209       55.86621       25.28335
C         67.67235       56.43284       26.45619
H         68.56863       57.01899       26.15958
H         66.95712       57.09214       26.99154
H         67.99380       55.62129       27.14338
H         66.95951       54.84190       25.24373
Ca        62.57249       57.42363       16.85430
O         61.59845       57.01397       14.01156
H         62.26469       56.40516       13.60475
H         61.92390       57.92366       13.79540
O         63.98204       54.70429       16.15664
H         64.36151       54.01536       15.55550
H         63.79486       54.22214       17.00085
O         66.10262       57.02999       17.28413
H         66.60344       57.31621       18.08860
H         66.50744       56.16328       17.02991
O         65.26325       56.88356       14.20867
H         65.92155       56.34042       13.70723
H         65.42851       57.81286       13.90943

Ca 1.0



