%chk=apoCaM-CA-Ng.loop4.water5.frame626.chk
%nprocshared=20
%mem=10GB
%nosave
#b3lyp/svp scf=(tight,noincore,xqc) Test 
#IOP(5/87=12) Density=Current Pop=(MK,readradii) iop(6/33=2) iop(6/42=6)

apoCaM-CA-Ng.loop4.water5.frame626 

   -3  1 
C         99.00142       46.97734      -15.12384
C         99.95173       47.65877      -16.06478
O         99.72298       47.64363      -17.26546
H         98.15631       46.51405      -15.67606
H         99.53648       46.18891      -14.55436
H         98.59066       47.72340      -14.40989
N        101.04031       48.30907      -15.56490
C        102.01066       49.05802      -16.36178
C        101.31665       50.17092      -17.12419
O        101.52558       50.33488      -18.31936
C        102.83492       48.12425      -17.27011
C        103.53335       47.07688      -16.45490
O        104.39467       47.37624      -15.64366
O        103.13816       45.80322      -16.58467
H        101.17482       48.31029      -14.54164
H        102.71478       49.54964      -15.65402
H        103.58986       48.69281      -17.85386
H        102.15238       47.62494      -17.99175
N        100.43226       50.96519      -16.46341
C         99.71997       52.07177      -17.09629
C        100.68510       53.23663      -17.34316
O        101.75163       53.23450      -16.74312
C         98.48951       52.49844      -16.22175
C         98.90125       52.99257      -14.80397
C         97.47244       51.34012      -16.17002
C         97.73251       53.53291      -13.98020
H        100.23710       50.72652      -15.48334
H         99.33296       51.70049      -18.06779
H         97.96935       53.33683      -16.71079
H         99.63469       53.81940      -14.91180
H         99.37746       52.18858      -14.20903
H         97.18225       51.04823      -17.20242
H         97.89197       50.44980      -15.65728
H         96.53995       51.64275      -15.65404
H         98.11442       53.90509      -13.00606
H         97.23908       54.37161      -14.51404
H         96.98935       52.73917      -13.76377
N        100.42285       54.28910      -18.17789
C         99.27585       54.40243      -19.07112
C         99.27566       53.31156      -20.12444
O         98.22578       52.72463      -20.35258
C         99.14374       55.81698      -19.69880
C        100.26758       56.36578      -20.54421
O        101.41797       55.70068      -20.73710
O        100.13524       57.46856      -21.04999
H        101.11987       55.04957      -18.20352
H         98.33584       54.32222      -18.49964
H         98.98625       56.53964      -18.86826
H         98.22170       55.81980      -20.32225
N        100.41153       52.96474      -20.79736
C        100.41827       51.97299      -21.85542
C         99.59921       52.42956      -23.03832
O         99.07616       53.53715      -23.03538
H        101.31088       53.39303      -20.54679
H        100.01431       51.01505      -21.46132
H        101.46009       51.79765      -22.20138
N         99.43297       51.59820      -24.10064
C         98.61140       51.95652      -25.25201
C         97.13446       52.17005      -24.90438
O         96.41173       52.60540      -25.78959
C         98.81438       50.94831      -26.41538
C         98.67954       49.48898      -26.04997
O         97.52189       48.98196      -25.60332
O         99.63794       48.74398      -26.17979
H         99.92124       50.69005      -24.08401
H         98.97321       52.93596      -25.63919
H         99.85123       51.09212      -26.79116
H         98.12650       51.19178      -27.25429
N         96.60602       51.94278      -23.65897
C         95.20929       52.22275      -23.33799
C         94.22702       51.31555      -24.05864
O         93.03083       51.52612      -23.92817
H         97.19749       51.58942      -22.89545
H         94.99541       53.28562      -23.58335
H         95.04446       52.08699      -22.24625
N         94.66456       50.26250      -24.80253
C         93.83299       49.30591      -25.51510
C         92.95737       48.50691      -24.56080
O         91.86135       48.11157      -24.93613
C         93.08743       49.97023      -26.69888
C         94.08770       50.61990      -27.67704
C         93.41353       51.19839      -28.89423
N         93.54027       52.51184      -29.20067
O         92.76601       50.46702      -29.62830
H         95.66574       50.08608      -24.85077
H         94.51962       48.55144      -25.96081
H         92.37034       50.73605      -26.33162
H         92.51628       49.18812      -27.24461
H         94.81718       49.85542      -28.02121
H         94.64885       51.41798      -27.15145
H         94.09262       53.14661      -28.60560
H         93.09215       52.89666      -30.04574
N         93.40248       48.21617      -23.30007
C         92.64430       47.43887      -22.32184
C         93.53122       46.51564      -21.47033
O         92.98251       45.86001      -20.59742
C         91.83514       48.38556      -21.38490
C         92.73730       49.35604      -20.60591
C         90.76096       49.16563      -22.15503
H         94.28467       48.64797      -22.99060
H         91.91045       46.78407      -22.84371
H         91.28963       47.75523      -20.64767
H         93.28203       50.03581      -21.29426
H         92.12475       49.97304      -19.91542
H         93.47408       48.79611      -19.99561
H         90.08404       48.46110      -22.68453
H         90.14658       49.76369      -21.44920
H         91.21248       49.85705      -22.89385
N         94.88845       46.42119      -21.62986
C         95.74915       45.65916      -20.72261
C         96.40529       44.49651      -21.44869
O         96.16766       44.31250      -22.63295
C         96.80428       46.61880      -20.12078
C         96.15656       47.70960      -19.30163
N         96.30377       49.01378      -19.63480
O         95.49479       47.40930      -18.31902
H         95.36014       46.91935      -22.39501
H         95.16468       45.21371      -19.88902
H         97.40927       47.05963      -20.94379
H         97.49905       46.07479      -19.44791
H         96.85624       49.29389      -20.45782
H         95.85776       49.74979      -19.06682
N         97.25349       43.66197      -20.77392
C         97.93765       42.53005      -21.39429
C         97.69694       41.25383      -20.57884
O         97.04696       41.32429      -19.54548
C         99.44154       42.89468      -21.46115
C        100.25225       41.98228      -22.34539
C        101.30755       41.21831      -21.82126
C         99.96108       41.90113      -23.71832
C        102.05108       40.37884      -22.65750
C        100.70604       41.06477      -24.55130
C        101.75146       40.29995      -24.02632
O        102.46007       39.49749      -24.84552
H         97.46149       43.85916      -19.78419
H         97.55528       42.37861      -22.42469
H         99.85045       42.93265      -20.42670
H         99.54649       43.91460      -21.89302
H        101.55220       41.26779      -20.76851
H         99.15876       42.48923      -24.14627
H        102.85965       39.79168      -22.24138
H        100.46977       41.01351      -25.60682
H        103.19249       38.95239      -24.52536
N         98.23031       40.05372      -20.96591
C         98.17126       38.83576      -20.15969
C         99.60822       38.39323      -19.84395
O        100.07696       37.43000      -20.43433
C         97.37238       37.74307      -20.90499
C         97.18669       36.48684      -20.02474
C         96.40359       35.42234      -20.73268
O         96.95755       34.21441      -20.95378
O         95.25706       35.63587      -21.09200
H         98.73376       39.99381      -21.86014
H         97.61444       39.00521      -19.21843
H         97.88201       37.47729      -21.85721
H         96.36611       38.14878      -21.15011
H         96.65434       36.75925      -19.08743
H         98.17092       36.05985      -19.74239
N        100.41186       39.05542      -18.95922
C         99.98028       40.18986      -18.15316
C         98.93526       39.79231      -17.12056
O         98.66120       38.61017      -16.95521
C        101.17827       40.87865      -17.47946
C        101.91151       40.05380      -16.39766
C        103.00974       40.91725      -15.85794
O        104.18424       40.61444      -15.99113
O        102.65846       42.11496      -15.36618
H        101.38790       38.73153      -18.87492
H         99.55687       40.94610      -18.83613
H        100.80621       41.82119      -17.02077
H        101.90405       41.16725      -18.27243
H        102.32945       39.11759      -16.82198
H        101.21648       39.79625      -15.56984
N         98.30306       40.74594      -16.38391
C         97.29875       40.41289      -15.39779
H         96.45308       39.88039      -15.88342
H         97.74034       39.76701      -14.60944
H         96.91030       41.33944      -14.92451
H         98.52937       41.74065      -16.53291
Ca       103.85951       43.99287      -15.47302
O        106.65050       42.54198      -14.46842
H        106.99248       42.16391      -15.31720
H        105.79144       42.07414      -14.31615
O        105.17096       44.12854      -12.02973
H        104.59869       44.68974      -11.44842
H        105.62769       43.50933      -11.40662
O        102.23338       43.30574      -12.70208
H        102.43701       42.78096      -11.88775
H        101.45363       42.84665      -13.10399
O        106.08706       44.26131      -17.58273
H        105.96688       45.18983      -17.90482
H        106.79909       44.32687      -16.89804
O        106.72331       45.79188      -14.29726
H        107.46451       45.99335      -14.92197
H        107.17341       45.54101      -13.45187

Ca 1.0



