%chk=apoCaM-CA-Ng.loop1.water3.frame760.chk
%nprocshared=20
%mem=10GB
%nosave
#b3lyp/svp scf=(tight,noincore,xqc) Test 
#IOP(5/87=12) Density=Current Pop=(MK,readradii) iop(6/33=2) iop(6/42=6)

apoCaM-CA-Ng.loop1.water3.frame760 

   0  1 
C         51.23783       33.05046       15.17444
C         51.60849       34.37939       14.58388
O         50.87306       34.90340       13.76024
H         50.27281       32.68653       14.76468
H         52.03279       32.30743       14.95699
H         51.13666       33.15492       16.27712
N         52.73693       35.00234       15.01205
C         53.14897       36.33583       14.58938
C         54.63740       36.34284       14.12872
O         55.45306       35.68640       15.05526
C         52.75591       37.37492       15.68228
C         53.13046       37.11060       17.12129
O         53.72501       36.10330       17.46546
O         52.75422       38.00010       18.05984
H         53.29223       34.52437       15.73678
H         52.57488       36.65916       13.69317
H         51.64621       37.43772       15.67893
H         53.13389       38.37776       15.39379
N         55.11858       37.71714       13.89684
C         56.45690       37.85196       13.28047
C         57.19050       38.96591       14.01306
O         56.70227       40.08746       14.02471
C         56.33030       38.17580       11.76633
C         57.67847       38.44657       11.06703
C         57.45972       38.82974        9.59346
C         58.77788       39.20805        8.90054
N         58.54202       39.61380        7.51369
H         54.40767       38.29725       13.39265
H         57.03804       36.90860       13.38889
H         55.70037       39.08515       11.64726
H         55.81672       37.32936       11.25995
H         58.33289       37.55051       11.13492
H         58.18676       39.29726       11.57076
H         56.77787       39.70731        9.54566
H         56.98492       37.98116        9.05392
H         59.47559       38.34201        8.91906
H         59.25338       40.05364        9.44656
H         57.90641       40.44448        7.48415
H         59.45290       39.87448        7.07101
H         58.11575       38.82628        6.97352
N         58.38369       38.72303       14.63497
C         59.14821       39.75107       15.35080
C         60.53222       39.23921       15.76301
O         60.68873       38.04180       15.95709
C         58.37866       40.26296       16.60481
C         58.08472       39.18340       17.61209
O         56.81612       38.85906       17.89318
O         58.98703       38.57418       18.16228
H         58.77432       37.77336       14.55517
H         59.29720       40.59443       14.64592
H         57.41909       40.72057       16.28996
H         58.95138       41.05189       17.12847
N         61.58868       40.07235       15.99890
C         61.59421       41.50649       15.76031
C         61.70034       41.84159       14.29261
O         61.77281       40.94757       13.46049
H         62.45737       39.65842       16.37243
H         62.50284       41.93932       16.23111
H         60.71637       41.99189       16.22478
N         61.73543       43.14771       13.90837
C         61.95714       43.55679       12.52596
C         63.38323       43.26025       12.07150
O         63.58880       43.11985       10.87379
C         61.57652       45.03787       12.30609
C         62.30348       45.99570       13.21225
O         61.60559       46.74467       14.08861
O         63.51709       46.10706       13.15819
H         61.59826       43.86871       14.63249
H         61.26454       42.96996       11.88012
H         60.48638       45.13835       12.50360
H         61.75265       45.32406       11.24631
N         64.42630       43.18209       12.95541
C         65.78313       42.85167       12.53701
C         65.94737       41.37989       12.18131
O         67.00159       41.01742       11.68040
H         64.26712       43.38810       13.95244
H         66.49695       43.06882       13.36083
H         66.06115       43.50169       11.67733
N         64.96038       40.47303       12.44469
C         65.00544       39.05353       12.11154
C         64.88229       38.23002       13.38270
O         63.97304       38.46615       14.16549
C         63.83286       38.70608       11.16989
C         63.86576       39.52440        9.87359
O         63.82991       37.33045       10.87370
H         64.10876       40.79647       12.91139
H         65.95351       38.79670       11.58663
H         62.87792       38.94252       11.68829
H         64.62950       37.13740       10.31666
H         64.80631       39.33361        9.31410
H         63.00092       39.24337        9.23764
H         63.79616       40.60828       10.09486
N         65.77767       37.23954       13.64288
C         65.78838       36.44512       14.86927
C         66.99082       36.87159       15.69648
O         66.81992       37.06572       16.89346
C         65.70710       34.92333       14.55182
C         64.39364       34.55678       13.79698
C         65.84939       34.06210       15.82208
C         63.09033       34.80255       14.57652
H         66.50967       37.05624       12.94130
H         64.90946       36.68788       15.50258
H         66.55729       34.65859       13.88497
H         64.42496       33.47761       13.52964
H         64.34254       35.12981       12.84700
H         65.77873       32.98282       15.56481
H         66.83886       34.22724       16.29604
H         65.06542       34.30415       16.56909
H         62.95624       35.87372       14.82640
H         62.22373       34.49697       13.95312
H         63.05592       34.20185       15.50857
N         68.17105       37.23104       15.10772
C         69.21319       37.95691       15.81967
C         70.54493       37.27286       15.64472
O         70.98452       37.11625       14.51214
C         69.30364       39.40446       15.26710
C         67.95634       40.14308       15.30573
O         70.27503       40.13830       15.97139
H         68.30149       37.10782       14.09382
H         68.97130       38.03183       16.90262
H         69.61275       39.36738       14.19891
H         69.96082       40.22821       16.90987
H         68.08079       41.17081       14.90408
H         67.20732       39.62319       14.67260
H         67.56883       40.20378       16.34430
N         71.25773       36.85468       16.72644
C         72.58179       36.26128       16.60633
C         72.99584       35.65055       17.93729
O         73.18826       34.44442       17.98589
C         73.61074       37.30774       16.06465
C         74.98550       36.69049       15.81039
O         73.75916       38.39411       16.94189
H         70.83701       36.95786       17.66368
H         72.51656       35.42600       15.87136
H         73.27909       37.69326       15.07514
H         72.96017       38.97249       16.82947
H         75.42608       36.29762       16.75011
H         74.90242       35.86753       15.06932
H         75.66909       37.46395       15.39703
N         73.15651       36.41998       19.05379
C         73.58049       35.88280       20.34167
C         72.63321       36.34707       21.44231
O         72.09280       37.43949       21.34050
C         75.00760       36.38727       20.61605
C         75.66801       35.68982       21.81321
C         77.03048       36.31597       22.11500
C         77.71465       35.60683       23.28936
N         78.91767       36.32930       23.69863
H         73.01668       37.43702       18.98524
H         73.61241       34.77155       20.30964
H         74.97833       37.48921       20.76658
H         75.64038       36.17697       19.72450
H         75.78040       34.60553       21.58608
H         75.04117       35.80364       22.72036
H         76.86237       37.38264       22.37931
H         77.69186       36.26865       21.22138
H         77.97859       34.56705       22.99042
H         77.01926       35.55594       24.15627
H         79.37703       35.81418       24.48360
H         79.58663       36.41032       22.89928
H         78.65385       37.28454       24.03537
N         72.44987       35.59941       22.56934
C         71.63349       36.05651       23.69186
C         70.18930       36.31199       23.26978
O         69.74701       37.43769       23.45375
C         71.74473       35.09144       24.89982
C         70.95760       35.59371       26.12317
C         71.17674       34.70560       27.31479
O         71.71042       35.21244       28.44297
O         70.86394       33.52630       27.27270
H         72.94094       34.69598       22.64597
H         72.06239       37.02234       24.04817
H         72.82007       35.02173       25.17897
H         71.39580       34.07190       24.64481
H         69.87068       35.61682       25.89287
H         71.28624       36.62441       26.37914
N         69.36553       35.38262       22.70224
C         69.71793       34.02101       22.35751
H         70.76374       33.76139       22.57995
H         69.05591       33.32107       22.90758
H         69.56774       33.87630       21.26745
H         68.40171       35.67178       22.47378
Ca        56.06091       37.27506       16.53960
O         55.70602       37.24930       20.20820
H         55.96897       38.19229       20.35629
H         54.98733       37.08692       20.86910
O         58.19564       35.45029       19.65759
H         58.05611       34.86802       20.44634
H         58.79591       36.16776       19.98223
O         58.57410       35.21068       16.24737
H         58.68619       35.36498       15.27580
H         59.09593       35.93434       16.67630

Ca 1.0



