%chk=apoCaM-CA-Ng.loop3.water5.frame357.chk
%nprocshared=20
%mem=10GB
%nosave
#b3lyp/svp scf=(tight,noincore,xqc) Test 
#IOP(5/87=12) Density=Current Pop=(MK,readradii) iop(6/33=2) iop(6/42=6)

apoCaM-CA-Ng.loop3.water5.frame357 

   0  1 
C         98.25906       86.70704       51.95500
C         99.74303       86.82427       52.12998
O        100.48757       86.10147       51.48524
H         97.84746       87.67542       51.60202
H         97.99912       85.91867       51.22373
H         97.79446       86.44471       52.92851
N        100.23747       87.72567       53.02115
C        101.64967       87.91750       53.32134
C        102.24911       86.63768       53.89390
O        103.27082       86.16567       53.41344
C        102.39968       88.47873       52.08848
C        103.80169       88.91083       52.42265
O        104.01044       89.87299       53.34222
O        104.75475       88.40851       51.84886
H         99.56437       88.30633       53.54565
H        101.70559       88.69098       54.12062
H        101.85925       89.37471       51.71367
H        102.41963       87.72431       51.27293
N        101.64334       86.02722       54.95414
C        102.19785       84.85660       55.63651
C        102.33671       83.60914       54.76029
O        102.92013       82.64040       55.22806
C        101.34240       84.51196       56.88519
C         99.95400       83.92479       56.53999
C         99.14406       83.62932       57.80953
C         97.82646       82.91080       57.47925
N         97.05529       82.64739       58.69455
H        100.78288       86.45819       55.32646
H        103.21196       85.14990       55.98755
H        101.22318       85.42933       57.50339
H        101.88840       83.76217       57.49830
H        100.09506       82.97229       55.98441
H         99.37840       84.62402       55.89566
H         98.92959       84.58556       58.33496
H         99.73896       82.97542       58.48374
H         98.05291       81.94358       56.97603
H         97.21724       83.53132       56.78547
H         96.79272       83.54934       59.15426
H         96.18235       82.12947       58.44288
H         97.61367       82.06288       59.35854
N        101.76566       83.52288       53.52518
C        101.76083       82.29515       52.72868
C        103.16339       81.89004       52.28098
O        104.06378       82.71863       52.28675
C        100.82601       82.51026       51.52071
C        100.62919       81.31090       50.64530
O        100.06925       80.18577       51.11514
O        100.92098       81.37187       49.46570
H        101.23416       84.33016       53.17502
H        101.33904       81.48789       53.36804
H        101.22400       83.35045       50.91045
H         99.82402       82.81397       51.89352
N        103.42302       80.59612       51.91988
C        104.74169       80.13604       51.49988
C        105.13241       80.60437       50.10891
O        106.28563       80.42333       49.74247
H        102.67213       79.89578       52.00265
H        104.76895       79.02516       51.48673
H        105.48885       80.47705       52.24918
N        104.22657       81.17971       49.26784
C        104.53644       81.69308       47.93694
C        104.24506       83.19173       47.83644
O        104.58601       83.78177       46.82291
C        103.64492       80.99299       46.88035
C        103.73843       79.49050       46.87179
N        104.88888       78.86413       46.54109
O        102.74582       78.82856       47.13771
H        103.25695       81.24435       49.58297
H        105.61178       81.52870       47.70533
H        103.89156       81.36721       45.86321
H        102.58619       81.26250       47.08925
H        105.72922       79.40319       46.29030
H        104.92982       77.83407       46.51763
N        103.51030       83.84041       48.79013
C        103.00337       85.19320       48.64921
C        101.50644       85.16425       48.37815
O        100.86369       86.19638       48.52229
H        103.17100       83.34074       49.61690
H        103.49401       85.75397       47.82604
H        103.21388       85.72798       49.60041
N        100.89865       84.03964       47.89514
C         99.48305       83.94327       47.56120
C         99.23105       82.69049       46.73753
O         99.57375       81.59340       47.16114
C         98.59533       83.92396       48.82243
C         97.13420       83.76467       48.45222
C         96.47695       84.74656       47.69146
C         96.42729       82.61128       48.83575
C         95.14281       84.57148       47.31072
C         95.09490       82.43557       48.44912
C         94.44941       83.41460       47.68067
O         93.16953       83.25296       47.28814
H        101.48505       83.22083       47.68442
H         99.20637       84.82473       46.94226
H         98.73564       84.85542       49.40058
H         98.90719       83.07677       49.46325
H         96.99973       85.64258       47.38347
H         96.91150       81.83854       49.41918
H         94.65122       85.33088       46.71608
H         94.56832       81.53512       48.74051
H         92.65886       82.46093       47.50905
N         98.58932       82.78914       45.54736
C         98.34336       81.65016       44.67660
C         99.66739       81.22437       44.07078
O         99.99851       80.05138       44.14388
C         97.25425       81.99782       43.62110
C         95.92932       82.33053       44.37259
C         97.03538       80.81664       42.65342
C         94.78617       82.80241       43.47895
H         98.26037       83.72083       45.24724
H         97.92133       80.80325       45.26783
H         97.58817       82.88201       43.03385
H         96.10453       83.14728       45.09915
H         95.58995       81.44039       44.94855
H         96.29196       81.07296       41.87291
H         97.97016       80.55608       42.12141
H         96.68788       79.91668       43.20459
H         94.47274       82.01485       42.76620
H         93.90939       83.04610       44.11729
H         95.08694       83.71645       42.92609
N        100.51677       82.14654       43.52778
C        101.83894       81.76999       43.03897
C        101.77312       81.06254       41.69643
O        102.77916       80.48388       41.30868
C        102.76208       82.99345       42.94757
O        102.86934       83.59200       44.21060
H        100.25353       83.14300       43.55487
H        102.29549       81.08177       43.78695
H        102.34542       83.72417       42.21931
H        103.77140       82.66138       42.61186
H        103.53625       84.32072       44.11760
N        100.64186       81.06997       40.92349
C        100.52301       80.38292       39.63956
C        100.64469       78.87019       39.78688
O        100.84136       78.18880       38.79146
C        101.52214       80.95095       38.61877
H         99.81612       81.59457       41.24415
H         99.51222       80.58310       39.21873
H        101.34758       80.49321       37.62172
H        101.37448       82.04769       38.52192
H        102.57379       80.75372       38.90474
N        100.44244       78.27148       40.99578
C        100.52604       76.83816       41.22437
C         99.14355       76.29811       41.49951
O         98.42903       76.88245       42.30093
C        101.44467       76.56844       42.41926
H        100.17309       78.84926       41.80380
H        100.95684       76.30746       40.34744
H        101.51386       75.47467       42.60524
H        102.46426       76.95608       42.21135
H        101.05571       77.06002       43.33765
N         98.71415       75.15833       40.87696
C         97.40035       74.55142       41.08053
C         96.28485       75.36683       40.43818
O         95.12566       75.06363       40.68665
C         97.12950       74.24651       42.57681
C         98.23115       73.36794       43.19017
C         97.95825       73.09383       44.64057
O         98.83721       73.49588       45.57876
O         96.94546       72.50117       44.97696
H         99.36441       74.66610       40.24615
H         97.38185       73.57023       40.55543
H         96.15812       73.71164       42.66403
H         97.03629       75.18192       43.16418
H         99.21188       73.88383       43.10774
H         98.29419       72.40337       42.64172
N         96.55170       76.34867       39.52543
C         95.52134       77.09731       38.83305
H         94.49834       76.82714       39.16876
H         95.67465       78.18210       39.00699
H         95.59307       76.89574       37.74265
H         97.52429       76.56124       39.26189
Ca        99.67896       78.61786       49.53592
O         99.35952       78.28771       46.37887
H        100.21170       78.04761       45.93509
H         98.67331       78.18499       45.67245
O        100.41283       76.06664       48.16846
H        100.78586       75.74290       49.02656
H        100.67190       75.37890       47.50559
O         98.72456       77.05033       51.83434
H         98.00087       77.24929       51.18791
H         98.97303       77.93330       52.20752
O         96.89036       79.30427       48.44841
H         96.60333       78.97952       49.33892
H         96.63111       78.58179       47.82358
O        102.50490       77.95360       50.06754
H        102.44268       77.44972       50.91749
H        103.33915       77.63028       49.64464

Ca 1.0



