%chk=apoCaM-CA-Ng.loop3.water5.frame305.chk
%nprocshared=20
%mem=10GB
%nosave
#b3lyp/svp scf=(tight,noincore,xqc) Test 
#IOP(5/87=12) Density=Current Pop=(MK,readradii) iop(6/33=2) iop(6/42=6)

apoCaM-CA-Ng.loop3.water5.frame305 

   0  1 
C         84.85593       38.34323       42.91022
C         85.87287       37.96989       43.94957
O         87.05360       37.93381       43.63701
H         83.82675       38.33790       43.32918
H         85.07236       39.35976       42.52223
H         84.89426       37.61542       42.07410
N         85.47474       37.65967       45.21485
C         86.36856       37.26449       46.29682
C         87.13512       35.99911       45.93756
O         88.34474       35.94965       46.11835
C         87.30283       38.42475       46.72586
C         86.54065       39.62907       47.20787
O         85.78951       40.23053       46.45685
O         86.70346       40.06486       48.47200
H         84.46633       37.68247       45.43257
H         85.73439       37.00650       47.17507
H         87.96302       38.72875       45.88618
H         87.95123       38.07378       47.55853
N         86.47534       34.92526       45.41537
C         87.11734       33.64230       45.14101
C         87.27551       33.37996       43.64511
O         87.77339       32.31970       43.29115
C         86.29305       32.51196       45.79354
C         86.03776       32.75023       47.29309
C         85.33050       31.56724       47.98024
C         83.97188       31.15872       47.37594
N         82.98674       32.23999       47.41762
H         85.46848       35.01511       45.20649
H         88.14069       33.62078       45.57666
H         86.83670       31.55092       45.66203
H         85.31490       32.44153       45.27091
H         85.43299       33.67214       47.43074
H         87.01035       32.90645       47.80809
H         85.18346       31.82622       49.05157
H         86.00216       30.68294       47.93571
H         83.58390       30.29563       47.96115
H         84.10166       30.81016       46.32892
H         83.28604       33.03442       46.80869
H         82.07435       31.87779       47.05657
H         82.85303       32.57032       48.40054
N         86.90333       34.30027       42.70826
C         87.04336       34.09500       41.26777
C         88.49972       33.89020       40.88909
O         89.33780       34.63931       41.36590
C         86.47086       35.31413       40.52023
C         86.40971       35.07214       39.04298
O         85.69378       34.03565       38.56904
O         86.98279       35.81953       38.26839
H         86.49948       35.19327       43.02339
H         86.44054       33.20641       40.97462
H         87.07383       36.22236       40.74735
H         85.42909       35.48958       40.86211
N         88.87441       32.88951       40.03906
C         90.26753       32.60811       39.71954
C         91.01125       33.72047       38.99519
O         92.22557       33.60937       38.89901
H         88.15098       32.27159       39.64069
H         90.33640       31.69062       39.09382
H         90.79240       32.39726       40.67523
N         90.38454       34.79343       38.42611
C         91.12750       35.85032       37.73299
C         91.80313       36.82488       38.69893
O         92.49884       37.71493       38.22837
C         90.19731       36.66097       36.80049
C         89.53970       35.80396       35.74767
N         90.28110       35.11232       34.85112
O         88.32116       35.74844       35.69228
H         89.35631       34.82554       38.42602
H         91.90826       35.37894       37.09618
H         90.78792       37.44192       36.27217
H         89.41935       37.17302       37.40935
H         91.30975       35.15240       34.86630
H         89.82440       34.53825       34.12918
N         91.62207       36.75662       40.05059
C         92.18594       37.71661       40.98883
C         91.55823       39.10479       40.92068
O         91.98902       39.95477       41.68510
H         91.07155       35.99288       40.45233
H         93.28492       37.77514       40.83753
H         92.00537       37.34462       42.02157
N         90.54889       39.41404       40.05451
C         89.87692       40.71398       39.98044
C         89.01549       40.75861       38.73879
O         88.15619       39.90159       38.57227
C         88.95138       40.96571       41.19330
C         89.66934       41.45796       42.41765
C         89.69003       40.70204       43.59830
C         90.29684       42.71628       42.39129
C         90.33575       41.19658       44.73598
C         90.93249       43.21200       43.53012
C         90.95407       42.45290       44.70819
O         91.55887       42.92264       45.81741
H         90.23275       38.69017       39.39631
H         90.62874       41.52774       39.88636
H         88.35822       40.04489       41.38889
H         88.22543       41.77441       40.94758
H         89.21003       39.73303       43.63684
H         90.27857       43.32161       41.49234
H         90.34894       40.60521       45.64204
H         91.40117       44.18791       43.49607
H         91.98392       43.79212       45.84069
N         89.19961       41.75018       37.82260
C         88.45742       41.83392       36.57761
C         89.47029       41.64831       35.46785
O         89.39387       40.63956       34.78552
C         87.65593       43.16990       36.49105
C         86.77258       43.42091       37.74369
C         86.79070       43.23996       35.21892
C         85.64334       42.40864       37.96361
H         89.92030       42.46736       38.00047
H         87.72530       40.99867       36.51193
H         88.38155       44.01166       36.45876
H         86.31283       44.42993       37.65704
H         87.41601       43.43486       38.64923
H         86.23938       44.20326       35.18014
H         87.40231       43.18333       34.31049
H         86.06413       42.40303       35.17522
H         84.92223       42.42178       37.12133
H         86.03993       41.38312       38.09061
H         85.08597       42.68050       38.88413
N         90.49159       42.54235       35.27430
C         91.56999       42.32560       34.30559
C         91.08869       42.23365       32.86052
O         91.88932       41.86144       32.01425
C         92.65092       43.41250       34.43340
O         93.16392       43.41930       35.73802
H         90.53664       43.37487       35.88047
H         92.04404       41.34966       34.55735
H         92.20548       44.40475       34.19677
H         93.47825       43.19332       33.72062
H         93.84730       44.13869       35.76348
N         89.79002       42.48387       32.51225
C         89.20213       42.25016       31.19538
C         89.18313       40.76499       30.80173
O         88.71919       40.45578       29.71425
C         89.87479       43.13103       30.13730
H         89.15593       42.84676       33.22408
H         88.13697       42.57343       31.23907
H         89.34045       43.03314       29.16896
H         89.81967       44.19563       30.45340
H         90.93600       42.85655       29.98120
N         89.63757       39.79124       31.64544
C         89.65598       38.36270       31.35760
C         88.26323       37.80065       31.17571
O         87.41538       38.04923       32.02094
C         90.31139       37.61779       32.53318
H         90.00390       40.06054       32.55948
H         90.28029       38.16981       30.45892
H         89.73413       37.77577       33.47151
H         90.36003       36.52883       32.32254
H         91.34584       37.98962       32.69329
N         87.99070       36.95588       30.13225
C         86.73511       36.22012       29.95668
C         85.53579       37.11216       29.66093
O         84.44045       36.57546       29.55716
C         86.43677       35.34308       31.19183
C         87.53951       34.32159       31.52140
C         87.26133       33.67392       32.85060
O         86.20334       34.08607       33.57792
O         88.03025       32.84216       33.30380
H         88.74542       36.75267       29.45985
H         86.84365       35.53627       29.08567
H         85.49138       34.77617       31.03908
H         86.27657       36.00545       32.06360
H         88.52344       34.82930       31.60655
H         87.59879       33.55753       30.71600
N         85.64793       38.45962       29.48409
C         84.51188       39.31955       29.21937
H         83.54776       38.76807       29.22355
H         84.46129       40.10686       29.99976
H         84.63707       39.79865       28.22668
H         86.56888       38.91333       29.51853
Ca        85.92549       33.77037       35.77408
O         83.73132       36.12710       37.03346
H         82.75833       36.10340       36.85164
H         83.79713       36.30848       38.00442
O         83.25665       34.66000       34.08946
H         83.30195       34.65636       33.10043
H         83.01665       35.59180       34.32167
O         88.42608       32.49265       36.54017
H         87.89110       32.04746       35.83665
H         88.64307       31.76364       37.17164
O         84.04420       31.97972       36.83100
H         83.23009       32.51751       36.66266
H         84.02941       31.27643       36.13450
O         85.50916       37.11576       34.50911
H         84.93287       37.53226       33.81975
H         86.31252       37.69327       34.54413

Ca 1.0



