%chk=apoCaM-CA-Ng.loop1.water4.frame1020.chk
%nprocshared=20
%mem=10GB
%nosave
#b3lyp/svp scf=(tight,noincore,xqc) Test 
#IOP(5/87=12) Density=Current Pop=(MK,readradii) iop(6/33=2) iop(6/42=6)

apoCaM-CA-Ng.loop1.water4.frame1020 

   0  1 
C         45.29438       32.08337       69.35764
C         45.30777       33.57969       69.27470
O         45.14420       34.12246       68.19078
H         46.26877       31.72583       69.75239
H         44.48194       31.75538       70.03902
H         45.12804       31.63389       68.35559
N         45.50310       34.31838       70.40183
C         45.55370       35.77619       70.39119
C         46.73430       36.21842       69.54886
O         47.85827       35.86476       69.88156
C         45.69021       36.34296       71.82612
C         44.48712       36.05663       72.68668
O         43.76240       37.07769       73.18332
O         44.17074       34.91027       72.96025
H         45.63141       33.81385       71.29196
H         44.60812       36.17381       69.95892
H         45.79424       37.44527       71.77285
H         46.60191       35.93799       72.31726
N         46.55537       36.97828       68.42529
C         47.67647       37.35230       67.57337
C         48.72578       38.23153       68.26876
O         49.86822       38.11847       67.84605
C         47.25238       37.90456       66.18702
C         46.43707       36.87328       65.38409
C         46.11803       37.38423       63.96965
C         45.39719       36.34042       63.09768
N         44.07505       35.98467       63.61695
H         45.59929       37.24996       68.15081
H         48.20451       36.39865       67.34007
H         48.17486       38.13374       65.60936
H         46.66798       38.83722       66.26706
H         45.49469       36.64888       65.92329
H         47.03153       35.93834       65.29388
H         47.07371       37.63918       63.46186
H         45.50323       38.30467       64.02373
H         46.02471       35.42595       63.00975
H         45.27520       36.76886       62.07800
H         44.15387       35.50209       64.53966
H         43.48037       36.84017       63.70761
H         43.61634       35.32563       62.94702
N         48.53093       39.06947       69.34164
C         47.25821       39.51217       69.92292
C         47.44884       40.14035       71.31592
O         48.56255       40.17587       71.82113
C         46.56347       40.48314       68.95083
C         47.37343       41.72934       68.78363
O         46.83667       42.87672       69.19797
O         48.51891       41.70188       68.36301
H         49.38896       39.49834       69.72247
H         46.59701       38.66403       70.10623
H         45.56064       40.75281       69.34566
H         46.39056       40.01594       67.97542
N         46.37537       40.61963       72.01286
C         46.44984       41.10762       73.38440
C         46.03190       42.55734       73.55347
O         45.85431       42.95707       74.69439
H         45.44043       40.59033       71.58119
H         47.46501       40.99256       73.82193
H         45.76084       40.47596       73.98600
N         45.88021       43.41064       72.49508
C         45.47455       44.81555       72.61074
C         44.04929       44.91536       73.16771
O         43.87613       45.45976       74.24966
C         46.49088       45.63443       73.46045
C         47.90262       45.58532       72.93283
O         48.79691       45.12884       73.62665
O         48.19609       46.05558       71.70614
H         46.07155       43.05764       71.54994
H         45.47009       45.27791       71.60274
H         46.49288       45.27441       74.50997
H         46.17072       46.69832       73.48112
N         42.95714       44.39664       72.52666
C         42.98081       43.76202       71.22187
C         43.04010       44.77447       70.09881
O         42.07550       45.49868       69.90215
H         42.04702       44.43168       73.01248
H         42.03649       43.19446       71.07047
H         43.78827       43.00780       71.17386
N         44.13716       44.84959       69.29938
C         44.23089       45.65733       68.08599
C         44.66189       44.71479       66.97311
O         45.73030       44.13834       67.08855
C         45.20809       46.83500       68.30579
C         45.34227       47.72526       67.06931
O         46.47463       46.36146       68.67019
H         44.94657       44.27245       69.55267
H         43.24046       46.10020       67.84121
H         44.78012       47.45030       69.13459
H         46.86056       47.02058       69.30505
H         44.35138       48.12934       66.77468
H         46.01791       48.57724       67.29875
H         45.77441       47.15452       66.22020
N         43.83909       44.43876       65.91742
C         44.06791       43.34759       64.96475
C         45.31249       43.54493       64.10358
O         46.41334       43.66801       64.62164
C         44.06016       41.97219       65.70753
C         42.74850       41.74653       66.50850
C         44.30702       40.79703       64.75188
C         41.46922       41.69852       65.66199
H         42.94837       44.95161       65.84082
H         43.20584       43.33014       64.26639
H         44.89131       41.94432       66.44337
H         42.63523       42.54801       67.26922
H         42.83320       40.78410       67.05845
H         45.32203       40.87128       64.32660
H         44.26103       39.83890       65.31002
H         43.57106       40.77724       63.92164
H         41.28738       42.66137       65.14363
H         41.51192       40.88053       64.91407
H         40.59981       41.50715       66.32401
N         45.19381       43.52038       62.74506
C         46.30468       43.67481       61.81520
C         46.11188       44.88592       60.92029
O         46.95458       45.07382       60.06163
C         46.52236       42.38543       60.96344
C         45.27814       41.90958       60.20200
O         47.04021       41.34146       61.74562
H         44.25665       43.37573       62.33779
H         47.26101       43.85407       62.35634
H         47.30728       42.60937       60.20820
H         46.42353       41.19870       62.50172
H         44.89260       42.71284       59.54014
H         45.54068       41.03106       59.57493
H         44.47813       41.59733       60.90513
N         45.07200       45.77069       61.07413
C         44.94879       46.98604       60.26621
C         46.19012       47.84306       60.47139
O         46.26608       48.55527       61.46023
C         43.65593       47.77776       60.62574
C         42.38524       47.02890       60.21613
O         43.59910       48.02551       62.01153
H         44.37010       45.60119       61.80502
H         44.88953       46.69761       59.19335
H         43.64642       48.73619       60.05235
H         43.81705       48.98150       62.16193
H         42.30773       46.04908       60.73150
H         41.49275       47.63536       60.48405
H         42.37602       46.86322       59.11827
N         47.25392       47.71430       59.61820
C         48.56201       48.33850       59.79416
C         49.22879       47.96140       61.11119
O         48.66239       48.16900       62.17458
C         48.50894       49.86046       59.61038
C         48.13911       50.20499       58.15591
C         48.30147       51.69164       57.82750
C         47.31436       52.58730       58.58245
N         47.49466       53.98488       58.19348
H         47.15363       47.09300       58.80180
H         49.22845       47.96462       58.98420
H         49.53197       50.25645       59.79887
H         47.81398       50.32605       60.33879
H         47.10638       49.86577       57.92362
H         48.83859       49.66226       57.48109
H         48.12813       51.81805       56.73655
H         49.34632       52.00450       58.04807
H         47.46967       52.49524       59.67843
H         46.27568       52.26869       58.34259
H         46.80006       54.57517       58.70447
H         48.46003       54.30287       58.44147
H         47.34227       54.09482       57.16433
N         50.50315       47.48018       61.11058
C         51.22951       47.21456       62.34331
C         50.67866       45.98595       63.06089
O         50.25969       46.14453       64.19821
C         52.75232       47.14869       62.09005
C         53.55038       47.16647       63.40187
C         55.02410       47.23513       63.12356
O         55.63150       46.24570       62.44163
O         55.67845       48.18974       63.51272
H         51.00229       47.40135       60.21115
H         51.09848       48.10840       62.99730
H         53.03469       48.06179       61.51895
H         53.03900       46.26740       61.48375
H         53.33232       46.25805       64.00174
H         53.25385       48.06061       63.99564
N         50.62109       44.72958       62.52077
C         51.02011       44.34635       61.18037
H         51.82524       43.58431       61.23865
H         50.14817       43.90300       60.65492
H         51.38057       45.18305       60.56432
H         50.24378       43.97006       63.10895
Ca        47.99886       44.56996       70.05084
O         49.35967       47.21443       67.77986
H         49.09625       47.89867       68.44531
H         48.90513       47.49216       66.94511
O         49.05132       44.18177       66.46050
H         48.39807       44.89650       66.25394
H         49.19870       43.72239       65.59581
O         51.35831       44.77231       68.79275
H         51.64717       45.05872       67.88996
H         51.95692       44.01577       69.01592
O         50.53058       42.73871       71.22719
H         50.37665       43.67964       71.49400
H         49.67966       42.45857       70.80677

Ca 1.0



