%chk=apoCaM-CA-Ng.loop1.water3.frame1217.chk
%nprocshared=20
%mem=10GB
%nosave
#b3lyp/svp scf=(tight,noincore,xqc) Test 
#IOP(5/87=12) Density=Current Pop=(MK,readradii) iop(6/33=2) iop(6/42=6)

apoCaM-CA-Ng.loop1.water3.frame1217 

   0  1 
C         47.33313       -1.24234       90.50874
C         46.27401       -2.21133       90.93024
O         45.35332       -2.44929       90.16007
H         48.31495       -1.75700       90.48199
H         47.11060       -0.83638       89.49794
H         47.37266       -0.39892       91.22922
N         46.32799       -2.79284       92.16445
C         45.30391       -3.71131       92.64411
C         44.49307       -3.05731       93.74144
O         44.33405       -3.61150       94.82160
C         45.87834       -5.09699       93.01457
C         46.84767       -5.08220       94.16565
O         46.56107       -5.76497       95.29076
O         47.90663       -4.48269       94.08083
H         47.09767       -2.53176       92.79690
H         44.58138       -3.90291       91.83512
H         46.37776       -5.53834       92.12564
H         45.02425       -5.76056       93.27972
N         43.88505       -1.86871       93.47869
C         42.93083       -1.23588       94.37795
C         41.75374       -2.17745       94.59676
O         41.47295       -2.46388       95.75071
C         42.50044        0.16051       93.86079
C         43.71086        1.11179       93.84433
C         43.37370        2.48755       93.26505
C         44.62204        3.38346       93.28933
N         44.35754        4.68105       92.67212
H         44.06777       -1.42720       92.56439
H         43.41603       -1.05697       95.36494
H         41.73004        0.58618       94.54084
H         42.05690        0.10713       92.84828
H         44.52411        0.67917       93.22453
H         44.08787        1.22855       94.88447
H         42.56029        2.96345       93.85498
H         43.03044        2.36180       92.21458
H         45.45025        2.88518       92.73674
H         44.94773        3.53386       94.34323
H         43.58867        5.17406       93.18070
H         45.22583        5.26211       92.71953
H         44.09476        4.55047       91.66813
N         41.06105       -2.79487       93.59043
C         41.27041       -2.62605       92.15457
C         41.92071       -3.86831       91.53409
O         42.22510       -4.81626       92.24772
C         39.93659       -2.26007       91.48377
C         38.92924       -3.34796       91.64619
O         39.29256       -4.60733       91.36728
O         37.78900       -3.09784       91.99475
H         40.34631       -3.48293       93.87759
H         41.96053       -1.80403       91.93145
H         40.10218       -2.11905       90.39624
H         39.53535       -1.30049       91.87734
N         42.20229       -3.89928       90.19918
C         42.96094       -4.94866       89.53017
C         42.34763       -6.33302       89.54218
O         41.28253       -6.54636       90.09601
H         41.93705       -3.09000       89.61795
H         43.96921       -5.01653       89.98334
H         43.09200       -4.65539       88.46622
N         43.01710       -7.32347       88.87758
C         42.58928       -8.72219       88.76128
C         43.38489       -9.42414       87.64965
O         44.54371       -9.09104       87.45164
C         42.82340       -9.51785       90.06811
C         41.96394       -9.08407       91.21332
O         40.74801       -9.15923       91.13140
O         42.53302       -8.65019       92.35310
H         43.86740       -7.02956       88.37580
H         41.51794       -8.73448       88.49358
H         43.89595       -9.44587       90.35242
H         42.59724      -10.59184       89.90018
N         42.88303      -10.46660       86.91907
C         41.55490      -11.02972       87.07677
C         40.45354      -10.10310       86.61942
O         40.72216       -9.03404       86.08680
H         43.50800      -10.92208       86.23434
H         41.40042      -11.31972       88.13515
H         41.47417      -11.95514       86.46493
N         39.16093      -10.48158       86.80451
C         38.01046       -9.69271       86.37252
C         37.98442       -8.31275       87.01243
O         38.39656       -8.16541       88.15414
C         36.69165      -10.45393       86.65585
C         35.48045       -9.73796       86.05545
O         36.48254      -10.60291       88.03730
H         38.99872      -11.39660       87.25301
H         38.09596       -9.57086       85.26960
H         36.74138      -11.45379       86.16478
H         37.04130      -11.36058       88.34722
H         35.61767       -9.59465       84.96210
H         34.56339      -10.33966       86.22255
H         35.33677       -8.74998       86.53772
N         37.51162       -7.25331       86.28850
C         37.47942       -5.86406       86.73189
C         36.34463       -5.64506       87.76803
O         36.31293       -6.50336       88.87338
C         38.93452       -5.34384       87.02842
C         39.77920       -5.56634       85.73731
C         38.96652       -3.85673       87.43773
C         41.25201       -5.17877       85.83815
H         37.18453       -7.43265       85.32748
H         37.12303       -5.26000       85.86782
H         39.39268       -5.92123       87.85734
H         39.32441       -5.00523       84.89137
H         39.76538       -6.64356       85.47377
H         38.45262       -3.69289       88.40332
H         40.00335       -3.50947       87.61523
H         38.50417       -3.22122       86.65213
H         41.37834       -4.08895       85.99132
H         41.74189       -5.74122       86.65795
H         41.75437       -5.43710       84.88132
N         36.12175       -4.21990       88.08013
C         35.20159       -3.90061       89.18738
C         33.79472       -4.46253       89.03532
O         33.03247       -4.26034       89.96808
C         35.16963       -2.36864       89.45851
C         34.61919       -1.53451       88.29674
O         36.46641       -1.92123       89.76374
H         35.80822       -3.75172       87.20216
H         35.61353       -4.35915       90.11520
H         34.49579       -2.20022       90.33585
H         36.40361       -1.35472       90.57810
H         35.27223       -1.60845       87.40373
H         33.59183       -1.85920       88.03138
H         34.58218       -0.46506       88.59550
N         33.38250       -5.21490       87.96305
C         32.10668       -5.93479       87.95869
C         32.06924       -6.83948       89.18743
O         32.74853       -7.85582       89.22775
C         31.88793       -6.73804       86.64758
C         31.57423       -5.82102       85.45369
O         32.98480       -7.58182       86.37679
H         34.00508       -5.33011       87.15809
H         31.28711       -5.18819       88.04644
H         30.99211       -7.38355       86.76884
H         33.64965       -7.08357       85.82995
H         32.39527       -5.09759       85.26739
H         31.42162       -6.43556       84.54056
H         30.63750       -5.25795       85.65273
N         31.43085       -6.37212       90.30050
C         31.54833       -6.87873       91.66447
C         32.99421       -6.98579       92.14943
O         33.92358       -6.93694       91.35758
C         30.78035       -8.18930       91.91064
C         29.29496       -8.06752       91.53466
C         28.46442       -9.15349       92.23176
C         26.98161       -9.05676       91.85068
N         26.17284       -9.95661       92.67338
H         30.90752       -5.48731       90.21170
H         31.06667       -6.10959       92.31129
H         30.84842       -8.38674       93.00278
H         31.23699       -9.05220       91.37863
H         29.19046       -8.11294       90.42803
H         28.89984       -7.08942       91.88718
H         28.55972       -8.99543       93.32972
H         28.84673      -10.16760       91.98511
H         26.86328       -9.31642       90.77521
H         26.61735       -8.01637       92.00309
H         26.50820      -10.94232       92.57956
H         26.22707       -9.66095       93.67611
H         25.17548       -9.90130       92.36483
N         33.24655       -7.12737       93.48118
C         34.57601       -7.37403       94.03229
C         35.62511       -6.36425       93.56737
O         36.59226       -6.81197       92.96714
C         34.50717       -7.49604       95.57430
C         35.86530       -7.83858       96.20294
C         35.73205       -8.03876       97.68514
O         36.40292       -7.24182       98.53842
O         35.02298       -8.93072       98.12386
H         32.44610       -7.09421       94.13164
H         34.90034       -8.37159       93.65714
H         33.78356       -8.30575       95.81710
H         34.13100       -6.56229       96.03842
H         36.58055       -7.00912       96.01205
H         36.27074       -8.76869       95.75126
N         35.57748       -5.01916       93.78289
C         34.50833       -4.28403       94.41776
H         33.64761       -4.91302       94.69412
H         34.90406       -3.78034       95.32457
H         34.14269       -3.50897       93.71205
H         36.37602       -4.45880       93.45603
Ca        37.99012       -5.85262       90.14658
O         40.06629       -6.91364       93.28617
H         40.68879       -7.48837       93.79750
H         40.22980       -6.00366       93.63823
O         36.15690       -9.06507       90.63930
H         35.64430       -8.87768       89.81393
H         35.46534       -9.29313       91.30948
O         38.20483       -9.43640       92.86387
H         38.74021      -10.26102       92.97957
H         37.38838       -9.59182       93.40185

Ca 1.0



