%chk=apoCaM-CA-Ng.loop1.water3.frame77.chk
%nprocshared=20
%mem=10GB
%nosave
#b3lyp/svp scf=(tight,noincore,xqc) Test 
#IOP(5/87=12) Density=Current Pop=(MK,readradii) iop(6/33=2) iop(6/42=6)

apoCaM-CA-Ng.loop1.water3.frame77 

   0  1 
C         46.18070       46.89807       64.85801
C         44.82423       47.32862       65.33477
O         44.69820       47.76971       66.46830
H         46.94489       47.04961       65.64998
H         46.15691       45.82301       64.58298
H         46.47101       47.49454       63.96691
N         43.75280       47.24241       64.49942
C         42.41405       47.68578       64.88230
C         41.83185       46.89945       66.05827
O         40.96614       47.42760       66.73969
C         41.44251       47.66034       63.67773
C         41.15425       46.27610       63.14909
O         42.04572       45.58413       62.68407
O         39.89320       45.80468       63.16233
H         43.92077       46.89659       63.54281
H         42.50651       48.75165       65.19189
H         41.86056       48.27954       62.85313
H         40.48194       48.12298       63.99054
N         42.18827       45.60510       66.29608
C         41.60212       44.78376       67.36085
C         42.23609       45.07764       68.71411
O         43.44751       45.24851       68.73222
C         41.86174       43.29238       67.07749
C         41.16094       42.81151       65.80164
C         41.32296       41.29703       65.65789
C         40.63572       40.78286       64.39046
N         40.75281       39.32868       64.29611
H         42.85366       45.16223       65.64444
H         40.50441       44.90250       67.36814
H         41.46256       42.69969       67.92652
H         42.95469       43.09305       67.01010
H         41.58659       43.32637       64.91358
H         40.07569       43.04910       65.86473
H         40.86698       40.80206       66.54435
H         42.40398       41.03885       65.62086
H         41.10721       41.25296       63.49883
H         39.55845       41.06179       64.40879
H         40.27525       38.87925       65.11143
H         40.29432       39.00428       63.41474
H         41.76025       39.04795       64.28040
N         41.57830       45.01730       69.91961
C         40.14756       44.83224       70.18113
C         39.55870       43.55071       69.60088
O         38.74110       43.63388       68.69357
C         39.33475       46.06826       69.76775
C         39.76945       47.33349       70.44298
O         39.12087       48.45229       70.11450
O         40.71425       47.37960       71.21564
H         42.16251       45.13223       70.76327
H         39.99144       44.77964       71.28155
H         38.27060       45.89946       70.03649
H         39.38475       46.23281       68.67558
N         39.83047       42.31456       70.10377
C         40.73334       42.05622       71.21503
C         40.67350       40.58051       71.59357
O         40.74487       39.76058       70.68877
H         39.32714       41.51997       69.67677
H         40.41797       42.69167       72.06067
H         41.76436       42.32924       70.91146
N         40.49328       40.12088       72.86998
C         40.60964       40.92463       74.08533
C         39.26594       41.19576       74.73418
O         38.25322       40.64870       74.32123
C         41.59352       40.25414       75.08671
C         41.12245       38.92950       75.64644
O         40.98519       37.95438       74.92574
O         40.89133       38.80556       76.96754
H         40.32261       39.11150       72.97602
H         41.05401       41.90740       73.84966
H         41.75135       40.94128       75.94489
H         42.58272       40.10675       74.60213
N         39.20899       42.06012       75.78498
C         38.01363       42.33769       76.55487
C         36.91041       43.03114       75.78539
O         35.80122       42.51630       75.77596
H         40.07935       42.51750       76.09755
H         38.29023       43.01105       77.39629
H         37.64152       41.38926       77.00024
N         37.11421       44.25008       75.20345
C         36.02274       45.09297       74.70829
C         36.14016       45.40278       73.22325
O         37.21779       45.74898       72.75873
C         35.99529       46.39943       75.53526
C         34.77097       47.26376       75.20390
O         37.17334       47.13382       75.31603
H         38.06862       44.64316       75.20693
H         35.04253       44.59665       74.88464
H         35.92626       46.10542       76.60967
H         37.29118       47.73247       76.09874
H         33.83771       46.69069       75.39308
H         34.76240       48.16674       75.84914
H         34.78474       47.59145       74.14330
N         35.01719       45.38816       72.44349
C         34.98863       45.73570       71.02549
C         34.13171       46.98069       70.83235
O         32.97419       46.97006       71.23097
C         34.42800       44.54303       70.19883
C         35.29045       43.27790       70.44706
C         34.37847       44.90784       68.69939
C         34.78197       42.02905       69.72665
H         34.11653       45.14090       72.88372
H         36.01313       45.94968       70.65601
H         33.38872       44.33000       70.53841
H         35.28176       43.04254       71.53327
H         36.34218       43.46912       70.14396
H         35.39904       45.12041       68.31576
H         33.92458       44.09418       68.10062
H         33.74113       45.80040       68.52896
H         35.41489       41.16176       70.00909
H         33.73225       41.81470       70.01957
H         34.84596       42.14261       68.62613
N         34.63601       48.08161       70.19680
C         33.86936       49.30905       69.97099
C         33.64385       49.60580       68.48836
O         32.95318       50.57304       68.20136
C         34.56651       50.51519       70.65708
C         35.93813       50.86635       70.05239
O         34.67640       50.30297       72.04218
H         35.60760       48.04365       69.85454
H         32.85755       49.20929       70.42215
H         33.92080       51.40956       70.51398
H         35.33746       49.57692       72.18739
H         36.35531       51.76200       70.55692
H         36.66257       50.03445       70.16602
H         35.83323       51.10441       68.97523
N         34.19133       48.83893       67.49640
C         34.02284       49.07300       66.06068
C         34.64099       50.40321       65.61387
O         34.98828       51.23835       66.43690
C         32.52335       48.94184       65.63690
C         31.90282       47.60810       66.08099
O         32.35789       49.09098       64.24892
H         34.76788       48.02581       67.75044
H         34.59645       48.27238       65.54051
H         31.93550       49.74988       66.11871
H         32.79513       48.31659       63.80620
H         32.44165       46.75387       65.61852
H         31.93888       47.50165       67.18486
H         30.83796       47.56902       65.76512
N         34.82362       50.64070       64.28439
C         35.32742       51.89124       63.70668
C         36.76622       52.25279       64.07625
O         37.20570       53.31953       63.66811
C         35.17692       51.82167       62.16866
C         36.12034       50.78356       61.52664
C         35.66984       50.43224       60.10762
C         36.60972       49.39502       59.48010
N         36.08083       48.91757       58.20382
H         34.53119       49.89628       63.63777
H         34.66432       52.70874       64.06741
H         35.35896       52.81332       61.69854
H         34.11666       51.55054       61.96618
H         36.10975       49.83704       62.10533
H         37.16194       51.17416       61.53502
H         35.62927       51.34075       59.46852
H         34.64818       49.99584       60.17465
H         36.72201       48.52368       60.16389
H         37.61279       49.85260       59.32900
H         35.17103       48.42502       58.36274
H         35.93901       49.71636       57.54469
H         36.75784       48.23991       57.78518
N         37.55919       51.44783       64.83917
C         38.92099       51.81981       65.21321
C         39.84139       51.78464       64.01308
O         39.96624       50.74615       63.37809
C         39.46169       50.89045       66.31725
C         38.65725       50.97406       67.63089
C         38.74058       52.31729       68.34434
O         39.25132       52.40712       69.59243
O         38.29010       53.32346       67.82371
H         37.18398       50.55689       65.18979
H         38.92137       52.84643       65.62153
H         40.52212       51.14095       66.54129
H         39.43417       49.84069       65.94517
H         39.05838       50.18399       68.28393
H         37.59563       50.71877       67.44519
N         40.54672       52.89527       63.66379
C         41.46962       52.90803       62.55163
H         42.26773       52.15203       62.71307
H         40.92997       52.68774       61.60717
H         41.94391       53.90944       62.46939
H         40.44258       53.75999       64.21607
Ca        39.88491       50.49643       70.55477
O         42.17630       49.70205       68.43851
H         41.33348       49.19959       68.56341
H         42.87477       49.09865       68.79557
O         38.29294       51.17210       73.03546
H         37.67659       50.51734       72.62144
H         38.15876       52.00336       72.51428
O         41.10341       49.56715       73.87742
H         40.68309       49.76519       74.75193
H         41.64573       48.75496       74.04112

Ca 1.0



