%chk=apoCaM-CA-Ng.loop3.water3.frame802.chk
%nprocshared=20
%mem=10GB
%nosave
#b3lyp/svp scf=(tight,noincore,xqc) Test 
#IOP(5/87=12) Density=Current Pop=(MK,readradii) iop(6/33=2) iop(6/42=6)

apoCaM-CA-Ng.loop3.water3.frame802 

   0  1 
C          0.99034       77.59786       82.65652
C         -0.47844       77.31350       82.77812
O         -0.93979       77.05297       83.87986
H          1.57471       76.72088       83.00177
H          1.27553       77.82750       81.60796
H          1.24513       78.47785       83.28499
N         -1.28902       77.38554       81.68580
C         -2.73895       77.22216       81.76958
C         -3.10614       75.77139       82.11772
O         -2.25489       74.90367       81.97617
C         -3.35679       77.69592       80.42309
C         -4.80873       78.07343       80.46430
O         -5.37788       78.39355       79.43528
O         -5.47169       78.13805       81.62610
H         -0.86208       77.64318       80.78169
H         -3.08822       77.89597       82.57119
H         -3.17382       76.91586       79.65132
H         -2.84442       78.62619       80.09178
N         -4.35074       75.43287       82.57559
C         -4.77933       74.05686       82.83316
C         -5.89993       73.62458       81.89338
O         -6.16203       72.42909       81.86243
C         -5.25942       73.88023       84.29195
C         -4.12748       73.81864       85.32532
C         -4.72233       73.69941       86.74041
C         -3.65480       73.37591       87.79305
N         -4.24272       73.33364       89.13344
H         -5.03577       76.17482       82.74585
H         -3.94623       73.34698       82.63358
H         -5.80009       72.91139       84.38419
H         -5.97774       74.68896       84.53845
H         -3.47628       74.71729       85.27031
H         -3.51542       72.91672       85.10043
H         -5.47609       72.88118       86.76752
H         -5.23152       74.65569       86.99313
H         -2.84771       74.13956       87.77040
H         -3.20893       72.38260       87.55834
H         -3.50943       73.05189       89.82345
H         -4.60434       74.28026       89.39293
H         -5.02379       72.63835       89.17021
N         -6.60629       74.49414       81.10697
C         -7.61825       74.04373       80.14972
C         -7.27831       74.47033       78.72358
O         -7.99159       74.04326       77.82626
C         -9.03199       74.51728       80.57915
C         -9.15170       76.01159       80.56605
O         -9.00337       76.62858       79.52684
O         -9.27911       76.69432       81.71205
H         -6.43822       75.50536       81.18628
H         -7.65450       72.93290       80.13730
H         -9.22230       74.14135       81.60830
H         -9.80706       74.08698       79.90908
N         -6.23072       75.30554       78.42570
C         -5.88744       75.68153       77.06405
C         -6.07049       77.16024       76.80488
O         -5.13127       77.80389       76.35877
H         -5.63548       75.68886       79.17012
H         -6.52834       75.15245       76.32894
H         -4.83753       75.37687       76.85850
N         -7.29080       77.74395       76.98769
C         -7.63798       79.08073       76.50612
C         -8.03959       80.05248       77.61449
O         -8.11302       79.68736       78.77880
C         -8.83683       78.92966       75.53383
C         -8.51249       78.12302       74.29997
N         -8.67646       78.66232       73.06918
O         -8.12385       76.96936       74.40551
H         -8.04554       77.17301       77.38920
H         -6.77790       79.54345       75.97380
H         -9.20315       79.92364       75.20952
H         -9.67610       78.43495       76.07242
H         -9.02207       79.62657       72.95474
H         -8.46986       78.11051       72.22415
N         -8.34599       81.33837       77.26267
C         -8.87075       82.37202       78.14051
C         -7.89687       82.83125       79.19429
O         -6.77413       83.18048       78.85613
H         -8.24990       81.60537       76.27124
H         -9.83251       82.03980       78.58506
H         -9.09045       83.26454       77.51411
N         -8.29474       82.93660       80.49539
C         -7.42421       83.44014       81.55765
C         -6.25292       82.50541       81.79098
O         -6.19309       81.45033       81.17853
C         -8.21062       83.56463       82.88740
C         -9.30046       84.60763       82.86820
C         -8.97967       85.96413       82.68694
C        -10.64011       84.24341       83.08399
C         -9.98084       86.93909       82.72746
C        -11.64021       85.22040       83.12237
C        -11.31523       86.57004       82.94950
O        -12.28901       87.50105       83.00671
H         -9.26748       82.68694       80.73008
H         -7.02898       84.43683       81.26344
H         -7.53149       83.85343       83.71637
H         -8.62826       82.56599       83.14067
H         -7.95275       86.27021       82.53186
H        -10.91087       83.20581       83.23486
H         -9.71669       87.98108       82.59654
H        -12.66807       84.92868       83.29783
H        -12.10396       88.44622       82.90984
N         -5.28796       82.84441       82.70398
C         -4.17722       81.98518       83.10588
C         -4.72456       80.76911       83.84226
O         -5.62234       80.11715       83.33179
C         -3.24549       81.61290       81.91378
C         -2.00194       80.80062       82.37021
C         -2.81317       82.86565       81.12964
C         -1.03137       81.52461       83.31016
H         -5.34982       83.76441       83.16359
H         -3.56148       82.56872       83.82258
H         -3.80437       80.96348       81.20755
H         -1.43291       80.48399       81.46901
H         -2.33940       79.89055       82.89315
H         -2.15508       82.57955       80.28174
H         -3.69642       83.38701       80.70522
H         -2.27400       83.58389       81.78121
H         -1.51914       81.81099       84.26202
H         -0.19401       80.83956       83.56012
H         -0.60186       82.42614       82.82990
N         -4.23123       80.39696       85.05481
C         -4.77511       79.27847       85.82220
C         -5.15567       79.66483       87.24894
O         -5.71198       78.82669       87.94182
C         -3.76460       78.12130       85.83538
O         -2.56516       78.50199       86.45649
H         -3.41223       80.90398       85.42217
H         -5.69962       78.89838       85.33863
H         -3.57229       77.77130       84.79812
H         -4.18427       77.24645       86.37590
H         -2.00065       78.92489       85.75733
N         -4.84457       80.88543       87.78017
C         -5.10282       81.22271       89.17551
C         -6.57644       81.49857       89.42948
O         -7.26491       81.87572       88.49118
C         -4.31361       82.48753       89.53321
H         -4.33623       81.57289       87.21231
H         -4.71901       80.39811       89.80948
H         -4.62020       83.33676       88.88576
H         -4.49116       82.78304       90.57916
H         -3.22672       82.30381       89.39198
N         -7.13655       81.45922       90.67781
C         -6.50092       80.89466       91.86926
C         -7.21883       81.35795       93.13431
O         -8.43646       81.24438       93.17666
C         -6.58091       79.36478       91.80592
H         -8.11559       81.77699       90.75900
H         -5.43775       81.17086       91.91126
H         -6.09569       78.92434       92.70353
H         -7.64064       79.03173       91.77238
H         -6.06807       78.96861       90.90788
N         -6.57779       81.83591       94.24499
C         -5.13075       81.92227       94.42684
C         -4.52077       82.96081       93.51019
O         -3.57271       82.63815       92.80878
C         -4.79636       82.23403       95.90392
C         -3.28932       82.11151       96.18945
C         -2.99639       82.30318       97.64962
O         -3.53701       81.47210       98.56202
O         -2.25059       83.19711       98.01571
H         -7.17395       82.08558       95.05115
H         -4.69187       80.91937       94.22151
H         -5.32164       81.48403       96.53652
H         -5.16361       83.24553       96.18628
H         -2.72775       82.86131       95.59117
H         -2.93786       81.09677       95.90095
N         -5.02350       84.22630       93.46123
C         -4.51476       85.25326       92.57374
H         -3.65727       84.90115       91.96234
H         -5.32392       85.57051       91.88208
H         -4.18667       86.12929       93.16984
H         -5.82616       84.47178       94.05993
Ca        -7.70539       78.27575       81.71465
O        -10.23476       80.12190       81.04298
H        -10.84510       80.65120       80.47085
H        -10.73518       79.99597       81.88760
O         -8.55827       79.96598       83.98709
H         -9.47004       80.31780       84.14317
H         -8.12750       79.97987       84.87813
O         -7.20743       77.03225       84.26837
H         -7.32770       76.89726       85.24105
H         -7.66843       76.26337       83.84867

Ca 1.0



