%chk=apoCaM-CA-Ng.loop4.water5.frame508.chk
%nprocshared=20
%mem=10GB
%nosave
#b3lyp/svp scf=(tight,noincore,xqc) Test 
#IOP(5/87=12) Density=Current Pop=(MK,readradii) iop(6/33=2) iop(6/42=6)

apoCaM-CA-Ng.loop4.water5.frame508 

   -3  1 
C         -9.88178       32.80529       51.28707
C        -10.07788       31.32310       51.36643
O        -10.58723       30.84059       52.36667
H         -8.80105       33.02898       51.16717
H        -10.43893       33.20617       50.41437
H        -10.25202       33.30158       52.20919
N         -9.68969       30.53392       50.32522
C         -9.83169       29.08030       50.28794
C        -11.29650       28.68288       50.35950
O        -11.60635       27.64258       50.91585
C         -8.98527       28.42231       51.40701
C         -7.57538       28.93506       51.35995
O         -7.11020       29.69610       52.36944
O         -6.87643       28.73022       50.38126
H         -9.26671       30.98691       49.50016
H         -9.44175       28.72982       49.30607
H         -8.99073       27.31461       51.31467
H         -9.41731       28.67552       52.39845
N        -12.25210       29.47162       49.78894
C        -13.69162       29.21879       49.87503
C        -14.23090       28.84590       48.50075
O        -13.51569       29.02338       47.52392
C        -14.43069       30.44782       50.52277
C        -14.03630       31.79980       49.86881
C        -14.18292       30.45379       52.04060
C        -14.86021       32.99089       50.36266
H        -11.93859       30.29327       49.25415
H        -13.86943       28.31447       50.49723
H        -15.52216       30.34047       50.38530
H        -14.18801       31.72325       48.77104
H        -12.96887       32.03285       50.06788
H        -13.10870       30.58467       52.27010
H        -14.76090       31.25124       52.54832
H        -14.52923       29.49314       52.47690
H        -14.53629       33.90620       49.82331
H        -15.93936       32.82351       50.16385
H        -14.70627       33.17436       51.44508
N        -15.43077       28.21187       48.31650
C        -16.38813       27.86040       49.36396
C        -16.33324       26.38385       49.71600
O        -16.20124       26.08702       50.89742
C        -17.81113       28.38762       49.04437
C        -18.50638       27.91676       47.78923
O        -17.97944       27.15782       46.99642
O        -19.74830       28.36744       47.53065
H        -15.65152       27.91174       47.35570
H        -16.13400       28.35407       50.31600
H        -17.75499       29.49610       48.98293
H        -18.46896       28.12716       49.90070
N        -16.37914       25.39551       48.77976
C        -16.32903       23.99316       49.14900
C        -17.57499       23.59905       49.90709
O        -18.65651       23.66066       49.33922
H        -16.40309       25.62640       47.77984
H        -15.40968       23.80995       49.74851
H        -16.26414       23.36334       48.23613
N        -17.49384       23.17238       51.19950
C        -18.64794       22.71713       51.97611
C        -19.70666       23.79451       52.25945
O        -20.71280       23.44765       52.86321
C        -18.17384       21.98641       53.25931
C        -17.33188       22.80934       54.19802
O        -17.85052       23.86724       54.83945
O        -16.17581       22.48640       54.42065
H        -16.55640       23.11271       51.62598
H        -19.16332       21.93165       51.37897
H        -17.56523       21.11427       52.93051
H        -19.04803       21.58344       53.81463
N        -19.60885       25.08434       51.81139
C        -20.69016       26.05524       51.95688
C        -20.88533       26.58334       53.36439
O        -21.78430       27.38912       53.55681
H        -18.78722       25.38575       51.27430
H        -21.63390       25.60831       51.57576
H        -20.46107       26.94093       51.32446
N        -20.04857       26.23557       54.37963
C        -20.07454       26.79895       55.72305
C        -19.81985       28.29545       55.66629
O        -20.51226       29.06753       56.31376
C        -21.35329       26.41527       56.50249
C        -21.46294       24.89460       56.69321
C        -22.69263       24.52686       57.48292
N        -23.93008       24.77969       56.99626
O        -22.57041       23.98304       58.57052
H        -19.28375       25.58713       54.18049
H        -19.20697       26.37321       56.27635
H        -22.25001       26.80736       55.97890
H        -21.31265       26.88180       57.51197
H        -20.55928       24.54302       57.23966
H        -21.50019       24.37741       55.71098
H        -24.05493       25.22293       56.07475
H        -24.76791       24.52109       57.53838
N        -18.80634       28.76032       54.88223
C        -18.39511       30.15828       54.81218
C        -16.90860       30.31445       55.13193
O        -16.44795       31.44982       55.15292
C        -18.75735       30.77675       53.43296
C        -18.16402       29.99846       52.25042
C        -20.28123       30.88907       53.27575
H        -18.30318       28.08226       54.29207
H        -18.93010       30.75601       55.58315
H        -18.35731       31.81492       53.40252
H        -18.40199       30.51899       51.29853
H        -17.06294       29.92753       52.34354
H        -18.58866       28.97409       52.19550
H        -20.53448       31.39005       52.31732
H        -20.76126       29.88926       53.29299
H        -20.70515       31.50165       54.10103
N        -16.09683       29.25106       55.42194
C        -14.69754       29.40481       55.81384
C        -14.56589       30.18555       57.10501
O        -15.55397       30.52370       57.73947
C        -14.03024       28.01828       56.00462
C        -13.73069       27.36289       54.69273
N        -12.80611       27.90742       53.87182
O        -14.28389       26.31923       54.38235
H        -16.47190       28.29360       55.38886
H        -14.15807       29.98177       55.03066
H        -14.68156       27.37914       56.64047
H        -13.04906       28.09334       56.51685
H        -12.30416       28.77233       54.12710
H        -12.57647       27.44236       52.99088
N        -13.31682       30.50682       57.53602
C        -13.03383       31.25908       58.74673
C        -12.29489       32.53251       58.37700
O        -12.06603       32.76959       57.19919
C        -12.28519       30.33042       59.72916
C        -10.99405       29.75739       59.18741
C         -9.83930       30.54996       59.08534
C        -10.93490       28.40855       58.79145
C         -8.64722       30.00302       58.60028
C         -9.74644       27.86743       58.29435
C         -8.59802       28.65918       58.20091
O         -7.45578       28.11824       57.73136
H        -12.50885       30.20873       56.96856
H        -13.97529       31.56612       59.25146
H        -12.98820       29.49258       59.93754
H        -12.09497       30.82414       60.70538
H         -9.85343       31.58465       59.39674
H        -11.81178       27.77577       58.85597
H         -7.76242       30.62373       58.53868
H         -9.71822       26.82981       57.98504
H         -6.63593       28.62755       57.66068
N        -11.90086       33.41147       59.34076
C        -11.21893       34.66245       59.03358
C         -9.79394       34.56146       59.56265
O         -9.63677       34.42658       60.76701
C        -12.02100       35.82567       59.64396
C        -11.44586       37.19954       59.28424
C        -12.29791       38.29846       59.85040
O        -13.46594       38.40914       59.51159
O        -11.77389       39.17526       60.72743
H        -12.07574       33.17889       60.32930
H        -11.21608       34.83406       57.94242
H        -12.06723       35.71383       60.74985
H        -13.05926       35.76541       59.24625
H        -11.40984       37.31437       58.17945
H        -10.41602       37.28791       59.68999
N         -8.69104       34.53134       58.74974
C         -8.72574       34.65681       57.29428
C         -8.94139       36.11069       56.90432
O         -8.63801       36.99378       57.69655
C         -7.42197       34.08942       56.68439
C         -7.42154       34.06330       55.14657
C         -6.20682       33.35655       54.61988
O         -5.99362       32.06239       54.92713
O         -5.41845       33.94297       53.89588
H         -7.77749       34.36181       59.20104
H         -9.53659       34.00870       56.89874
H         -7.32576       33.04083       57.04574
H         -6.54231       34.66507       57.04852
H         -7.43703       35.10133       54.75233
H         -8.32020       33.52332       54.77747
N         -9.45580       36.43836       55.68842
C         -9.63594       37.81452       55.27825
H        -10.32089       38.33683       55.97941
H         -8.65441       38.33573       55.26406
H        -10.07118       37.85282       54.25741
H         -9.72998       35.69238       55.03182
Ca        -5.17379       30.83517       52.13742
O         -2.67653       32.40692       53.45461
H         -2.33457       33.31649       53.26424
H         -2.90083       32.42240       54.41893
O         -2.27721       29.89891       51.35683
H         -1.87567       29.21056       51.94441
H         -2.35633       29.45706       50.47431
O         -4.83391       30.68747       49.12249
H         -4.30539       31.21910       48.47631
H         -5.32519       30.03433       48.56414
O         -4.18698       29.02008       54.14527
H         -3.33893       28.51225       54.09594
H         -4.15593       29.47863       55.02206
O         -4.10514       33.45999       50.62323
H         -4.47119       33.65533       49.72418
H         -3.70918       34.31680       50.92207

Ca 1.0



