%chk=apoCaM-CA-Ng.loop4.water5.frame704.chk
%nprocshared=20
%mem=10GB
%nosave
#b3lyp/svp scf=(tight,noincore,xqc) Test 
#IOP(5/87=12) Density=Current Pop=(MK,readradii) iop(6/33=2) iop(6/42=6)

apoCaM-CA-Ng.loop4.water5.frame704 

   -3  1 
C         -7.97317      -23.02964      -13.60358
C         -8.42229      -24.46298      -13.66213
O         -9.12392      -24.83536      -14.59042
H         -7.39726      -22.78070      -14.51896
H         -8.84951      -22.35769      -13.52200
H         -7.32559      -22.84296      -12.72086
N         -8.03466      -25.33065      -12.69000
C         -8.37999      -26.74588      -12.63505
C         -7.81610      -27.49157      -13.83111
O         -8.51286      -28.29801      -14.43372
C         -9.90172      -26.97475      -12.46061
C        -10.48676      -26.26385      -11.27180
O         -9.72993      -25.46856      -10.49061
O        -11.67364      -26.39363      -11.02589
H         -7.43483      -24.97483      -11.92953
H         -7.87267      -27.16693      -11.73810
H        -10.08885      -28.06418      -12.33897
H        -10.44581      -26.63116      -13.36648
N         -6.53287      -27.26427      -14.22973
C         -5.90719      -28.02323      -15.30997
C         -5.68107      -29.46859      -14.86692
O         -5.58796      -29.69700      -13.66838
C         -4.57054      -27.38226      -15.80976
C         -3.55849      -27.11036      -14.66148
C         -4.87721      -26.11327      -16.62530
C         -2.16610      -26.71946      -15.15518
H         -6.01055      -26.52292      -13.74826
H         -6.61396      -28.00904      -16.15510
H         -4.09546      -28.09563      -16.51212
H         -3.44010      -28.02968      -14.05086
H         -3.91556      -26.29498      -14.00002
H         -3.95923      -25.69381      -17.08222
H         -5.55778      -26.36564      -17.46830
H         -5.36256      -25.33893      -15.99614
H         -2.18653      -25.77775      -15.73881
H         -1.50260      -26.55676      -14.27949
H         -1.73978      -27.53390      -15.77728
N         -5.56006      -30.51900      -15.73699
C         -5.74505      -30.45386      -17.18638
C         -7.17593      -30.06399      -17.49848
O         -7.38717      -29.08837      -18.20694
C         -5.40330      -31.81337      -17.82943
C         -5.47037      -31.74617      -19.33109
O         -4.68030      -30.88676      -20.00414
O         -6.23164      -32.47415      -19.94708
H         -5.35489      -31.44315      -15.32359
H         -5.04147      -29.71562      -17.62081
H         -6.08770      -32.60274      -17.44786
H         -4.36420      -32.09365      -17.55093
N         -8.21354      -30.74765      -16.93761
C         -9.59008      -30.31113      -17.06966
C        -10.12191      -30.42050      -18.47312
O         -9.45844      -30.95030      -19.35449
H         -8.01698      -31.54924      -16.31931
H         -9.65787      -29.25450      -16.73161
H        -10.24347      -30.92386      -16.41132
N        -11.35961      -29.92093      -18.73586
C        -12.00965      -30.01621      -20.03635
C        -11.25446      -29.35438      -21.18054
O        -11.65693      -29.58399      -22.31294
C        -13.45063      -29.44287      -19.97149
C        -13.54878      -27.99897      -19.52227
O        -12.46260      -27.30290      -19.12921
O        -14.64200      -27.45842      -19.48496
H        -11.87537      -29.49063      -17.95233
H        -12.08073      -31.09755      -20.28800
H        -14.04936      -30.05146      -19.26162
H        -13.92033      -29.53543      -20.97558
N        -10.18561      -28.52025      -21.00724
C         -9.54096      -27.88241      -22.14652
C        -10.46166      -26.91492      -22.87572
O        -10.08671      -26.45668      -23.94490
H         -9.82151      -28.31739      -20.06577
H         -9.20520      -28.67806      -22.84689
H         -8.64130      -27.31818      -21.81679
N        -11.65747      -26.51961      -22.33869
C        -12.58579      -25.58580      -22.96163
C        -11.97101      -24.21016      -23.16789
O        -12.56717      -23.39634      -23.86023
C        -13.25295      -26.20698      -24.20946
C        -14.08555      -27.43847      -23.79151
C        -14.87113      -28.03041      -24.92993
N        -14.70238      -29.32515      -25.28786
O        -15.69423      -27.34308      -25.51583
H        -11.93145      -26.86258      -21.41671
H        -13.42530      -25.39762      -22.25416
H        -12.50053      -26.47887      -24.97980
H        -13.95056      -25.45996      -24.64752
H        -14.81427      -27.14133      -23.00549
H        -13.41761      -28.20587      -23.35760
H        -14.02699      -29.92846      -24.79592
H        -15.26050      -29.73221      -26.05283
N        -10.86385      -23.83184      -22.46093
C        -10.33087      -22.47650      -22.44729
C        -10.50844      -21.83691      -21.07485
O        -10.16832      -20.66985      -20.94496
C         -8.83150      -22.45700      -22.85964
C         -7.93548      -23.25636      -21.89246
C         -8.64744      -22.96756      -24.29266
H        -10.41490      -24.51079      -21.83292
H        -10.89444      -21.83539      -23.16129
H         -8.48521      -21.39935      -22.83975
H         -8.03401      -22.87238      -20.85485
H         -8.18754      -24.33686      -21.89804
H         -6.87056      -23.15416      -22.18863
H         -9.24806      -22.35314      -24.99633
H         -7.57967      -22.89043      -24.58940
H         -8.96386      -24.02740      -24.38002
N        -11.02433      -22.52580      -20.00774
C        -11.19258      -21.93510      -18.68686
C        -12.67221      -21.95107      -18.31499
O        -13.47359      -22.46770      -19.08020
C        -10.31041      -22.71439      -17.68959
C        -10.11951      -21.99092      -16.38405
N         -9.46154      -20.80784      -16.34386
O        -10.54467      -22.48165      -15.35219
H        -11.31119      -23.50847      -20.10645
H        -10.85852      -20.87666      -18.70887
H         -9.29370      -22.84979      -18.11981
H        -10.74793      -23.72543      -17.53173
H         -9.07718      -20.38803      -17.20322
H         -9.31850      -20.31697      -15.44907
N        -13.11708      -21.32888      -17.18633
C        -14.54591      -21.18268      -16.89821
C        -14.79646      -20.12635      -15.83330
O        -13.85350      -19.61724      -15.24674
C        -15.23211      -22.52440      -16.51869
C        -14.91471      -22.99917      -15.11525
C        -13.62521      -23.42011      -14.75809
C        -15.93139      -23.01637      -14.14201
C        -13.35263      -23.83291      -13.44742
C        -15.65891      -23.42701      -12.83660
C        -14.37043      -23.82845      -12.48068
O        -14.12666      -24.20220      -11.20936
H        -12.42288      -20.84996      -16.60086
H        -15.01834      -20.79566      -17.82808
H        -15.00648      -23.32405      -17.25392
H        -16.32754      -22.35132      -16.58560
H        -12.83687      -23.43122      -15.49439
H        -16.93745      -22.69997      -14.38725
H        -12.35224      -24.15353      -13.18467
H        -16.45090      -23.42548      -12.09811
H        -13.24378      -24.44952      -10.90597
N        -16.07172      -19.73493      -15.54922
C        -16.37247      -18.71823      -14.55620
C        -17.26931      -19.32447      -13.49067
O        -18.44580      -19.50713      -13.77075
C        -17.03461      -17.51825      -15.26491
C        -17.33414      -16.34725      -14.32114
C        -17.98727      -15.22077      -15.07140
O        -17.40477      -14.67427      -15.99503
O        -19.22207      -14.80785      -14.72716
H        -16.85658      -20.15904      -16.06506
H        -15.44213      -18.34529      -14.10475
H        -17.97825      -17.85137      -15.75283
H        -16.34567      -17.16303      -16.06390
H        -16.39049      -15.98167      -13.86196
H        -18.01642      -16.68315      -13.51160
N        -16.82567      -19.73535      -12.26401
C        -15.43589      -19.75486      -11.80852
C        -14.86151      -18.36142      -11.64392
O        -15.43324      -17.55318      -10.92495
C        -15.34394      -20.51088      -10.46266
C        -13.89454      -20.68361       -9.98109
C        -13.84907      -21.47198       -8.70514
O        -13.24499      -22.53092       -8.65918
O        -14.46826      -21.01087       -7.60158
H        -17.53572      -20.14974      -11.63825
H        -14.83608      -20.33942      -12.54215
H        -15.78358      -21.52303      -10.59848
H        -15.93885      -19.97648       -9.68882
H        -13.42583      -19.69365       -9.79753
H        -13.30957      -21.21117      -10.76608
N        -13.68839      -18.03459      -12.25390
C        -13.06534      -16.74062      -12.09496
H        -12.11057      -16.71101      -12.66288
H        -13.73674      -15.94525      -12.47993
H        -12.84214      -16.55858      -11.02202
H        -13.20436      -18.73580      -12.83449
Ca       -10.64878      -24.22606       -8.84970
O         -9.92027      -26.48227       -6.98036
H         -9.40041      -26.08782       -6.23571
H         -9.25877      -26.60510       -7.70707
O        -10.28169      -21.15844       -8.10779
H         -9.36767      -21.01734       -7.75414
H        -10.42685      -20.40323       -8.73144
O        -13.25343      -25.69836       -8.27231
H        -13.51475      -26.37220       -8.94880
H        -13.36915      -26.15912       -7.40398
O        -11.58415      -23.59037       -6.08964
H        -12.37141      -23.16526       -5.66615
H        -10.82298      -23.34991       -5.50399
O        -10.78248      -22.38663      -11.41247
H        -11.28619      -22.14352      -12.22881
H        -10.41682      -21.52673      -11.08633

Ca 1.0



