%chk=apoCaM-CA-Ng.loop1.water1.frame933.chk
%nprocshared=20
%mem=10GB
%nosave
#b3lyp/svp scf=(tight,noincore,xqc) Test 
#IOP(5/87=12) Density=Current Pop=(MK,readradii) iop(6/33=2) iop(6/42=6)

apoCaM-CA-Ng.loop1.water1.frame933 

   0  1 
C         13.99977       16.25969       71.07939
C         15.08595       15.60686       71.88394
O         16.05356       15.13929       71.30179
H         13.18609       16.64622       71.72979
H         14.42349       17.10651       70.50204
H         13.56235       15.51870       70.37741
N         14.97489       15.50956       73.23609
C         15.94655       14.81988       74.07461
C         15.56665       13.32038       74.17419
O         14.19584       13.06739       73.99756
C         16.24024       15.64315       75.36253
C         15.06110       16.05684       76.20195
O         14.76308       17.36483       76.33486
O         14.41334       15.23492       76.82063
H         14.11077       15.85465       73.68310
H         16.93330       14.77419       73.56601
H         16.72333       16.58543       75.02382
H         16.97572       15.11627       76.00579
N         16.16009       12.59497       75.30977
C         15.97376       11.12934       75.24385
C         15.81257       10.63511       76.66203
O         16.76253       10.71662       77.42964
C         17.15623       10.40768       74.53189
C         16.88348        8.89595       74.37019
C         17.99229        8.11133       73.64153
C         19.28427        7.94863       74.46130
N         20.24260        7.09310       73.75545
H         17.17445       12.82888       75.41721
H         15.03904       10.89896       74.68685
H         18.09334       10.57095       75.10754
H         17.29122       10.84875       73.52075
H         15.95635        8.79356       73.76624
H         16.70376        8.41926       75.35805
H         18.21318        8.58425       72.65987
H         17.59577        7.09021       73.44958
H         19.03934        7.47595       75.43886
H         19.74936        8.93841       74.65555
H         20.51382        7.52681       72.84335
H         21.10000        6.97342       74.34224
H         19.82620        6.14847       73.58261
N         14.60407       10.17719       77.09883
C         14.36219        9.78968       78.48480
C         13.55041        8.50417       78.58973
O         12.99551        8.06286       77.59259
C         13.68318       10.96035       79.24270
C         12.51544       11.54074       78.50453
O         11.56201       10.84928       78.18759
O         12.56660       12.82385       78.11617
H         13.80285       10.20363       76.44934
H         15.34113        9.57253       78.96134
H         14.44139       11.76430       79.36626
H         13.33800       10.66939       80.25232
N         13.45963        7.79884       79.75973
C         14.14291        8.16272       80.99415
C         15.27284        7.21933       81.28842
O         16.07312        6.95722       80.40187
H         12.91289        6.92652       79.76096
H         13.41527        8.23871       81.83035
H         14.64170        9.13881       80.93521
N         15.48450        6.78379       82.55783
C         16.64901        5.99220       82.93252
C         16.52475        4.58645       82.37943
O         15.53224        3.92638       82.65723
C         16.78957        5.97090       84.47007
C         18.04728        5.30225       84.97021
O         18.86518        4.82052       84.20169
O         18.28347        5.25692       86.29435
H         14.83910        7.10484       83.29660
H         17.56364        6.49716       82.54447
H         15.90519        5.47387       84.92226
H         16.82004        7.02363       84.82894
N         17.51871        4.04646       81.61731
C         17.46291        2.68271       81.11579
C         16.44878        2.48355       80.00974
O         16.28356        1.34768       79.58707
H         18.37280        4.59545       81.43769
H         17.24316        1.99862       81.96455
H         18.45429        2.40090       80.70093
N         15.76476        3.52703       79.45969
C         14.80005        3.37944       78.37837
C         13.43960        3.91192       78.79280
O         13.30601        4.50913       79.85226
C         15.31155        4.10959       77.09772
C         15.64746        5.59304       77.31124
O         16.46296        3.46552       76.61552
H         15.94040        4.47896       79.80268
H         14.65694        2.30690       78.12352
H         14.51163        4.08097       76.31961
H         16.18195        2.88390       75.86085
H         14.77467        6.13787       77.71663
H         16.50708        5.71447       78.00276
H         15.93613        6.05947       76.34492
N         12.38237        3.74777       77.95217
C         11.08885        4.39916       78.13170
C         10.39376        3.93486       79.40451
O         10.18182        4.77120       80.27147
C         10.19872        4.21290       76.86068
C         10.91069        4.82744       75.61498
C          8.81670        4.86793       77.06236
C         10.19267        4.56383       74.29216
H         12.54210        3.18228       77.10620
H         11.27551        5.49418       78.22679
H         10.04859        3.12324       76.69251
H         11.92189        4.39596       75.48518
H         11.03898        5.92310       75.75433
H          8.28869        4.42455       77.93155
H          8.92617        5.96077       77.23038
H          8.15982        4.70013       76.18677
H          9.19782        5.04807       74.26046
H         10.79779        4.98476       73.46087
H         10.08416        3.47043       74.12888
N          9.98428        2.64194       79.58054
C          9.26988        2.20397       80.78359
C          7.88083        1.67035       80.44988
O          7.51951        1.56643       79.28628
C         10.11025        1.16893       81.58412
C         10.33457       -0.16649       80.85910
O         11.33724        1.73183       81.97655
H         10.17811        1.95208       78.83972
H          9.10518        3.06680       81.46432
H          9.56447        0.92213       82.51926
H         11.89294        1.85043       81.16304
H          9.36300       -0.64906       80.62085
H         10.91052       -0.02416       79.92249
H         10.90396       -0.85290       81.52209
N          7.05015        1.31390       81.47049
C          5.71549        0.74734       81.31333
C          4.68045        1.63920       81.99459
O          3.68224        1.96735       81.36824
C          5.71589       -0.69254       81.89107
C          4.37224       -1.40791       81.70131
O          6.05103       -0.67707       83.25559
H          7.40258        1.42718       82.43004
H          5.44661        0.65367       80.23637
H          6.48660       -1.26385       81.31884
H          6.53155       -1.52433       83.44841
H          4.10623       -1.45326       80.62391
H          4.44542       -2.44830       82.08527
H          3.56079       -0.88925       82.25300
N          4.85974        2.06935       83.27793
C          3.87743        2.82787       84.04262
C          4.39015        4.22029       84.35396
O          5.50302        4.36170       84.84360
C          3.61501        2.11041       85.37924
C          3.03123        0.70613       85.19490
C          2.92013       -0.00170       86.54894
C          2.37828       -1.42531       86.38683
N          2.35991       -2.12179       87.67247
H          5.73367        1.83120       83.76722
H          2.91021        2.90985       83.49819
H          2.90688        2.71245       85.99243
H          4.57707        2.03493       85.93480
H          3.70316        0.10727       84.54549
H          2.03262        0.77777       84.71001
H          2.25470        0.57629       87.22766
H          3.93365       -0.05558       87.00477
H          3.02601       -1.99007       85.67957
H          1.34834       -1.38594       85.96760
H          1.74593       -1.61475       88.35035
H          1.98977       -3.08928       87.53259
H          3.33101       -2.18601       88.05705
N          3.56738        5.29379       84.19063
C          3.92673        6.64316       84.60908
C          5.01462        7.23959       83.72053
O          6.05489        7.57844       84.26685
C          2.66918        7.53634       84.73263
C          1.75464        7.03651       85.86958
C          0.51119        7.86743       85.98769
O         -0.28487        7.91695       85.06355
O          0.25342        8.54004       87.12559
H          2.61095        5.12560       83.84185
H          4.33766        6.59593       85.64481
H          2.09489        7.54946       83.78943
H          2.97828        8.57694       84.97609
H          2.31480        7.08170       86.82990
H          1.44968        5.98288       85.69710
N          4.91661        7.40650       82.36830
C          3.78109        7.02934       81.55622
H          2.88923        7.62313       81.82100
H          4.00228        7.24578       80.48924
H          3.58045        5.94312       81.64962
H          5.72538        7.81509       81.87349
Ca        13.14114       13.09051       75.98322
O         11.11285       12.68289       73.64689
H         10.14283       12.74831       73.83390
H         11.18250       12.74761       72.66135

Ca 1.0



