%chk=apoCaM-CA-Ng.loop4.water6.frame1020.chk
%nprocshared=20
%mem=10GB
%nosave
#b3lyp/svp scf=(tight,noincore,xqc) Test 
#IOP(5/87=12) Density=Current Pop=(MK,readradii) iop(6/33=2) iop(6/42=6)

apoCaM-CA-Ng.loop4.water6.frame1020 

   -3  1 
C         31.84107       45.87368       27.14442
C         32.21223       44.42022       27.20988
O         32.94591       44.04436       28.11101
H         30.74227       45.99800       27.21096
H         32.31761       46.43231       27.97758
H         32.21102       46.30282       26.18864
N         31.77456       43.51792       26.28919
C         30.78329       43.81991       25.26423
C         29.41272       43.77895       25.90753
O         28.66613       44.73777       25.77745
C         30.89777       42.83355       24.08863
C         32.26126       42.92180       23.45806
O         33.06433       41.84306       23.44369
O         32.65030       43.97075       22.96739
H         32.09824       42.54059       26.37825
H         30.96080       44.82640       24.82340
H         30.13703       43.07689       23.31450
H         30.72038       41.79758       24.43514
N         29.04514       42.70776       26.67135
C         27.80699       42.67599       27.45174
C         26.65846       42.05614       26.67909
O         25.52365       42.20285       27.12068
C         28.00412       41.98975       28.84417
C         28.43313       40.49568       28.72275
C         28.99834       42.80180       29.69327
C         28.47010       39.75138       30.06024
H         29.72017       41.94060       26.77553
H         27.49484       43.72633       27.64581
H         27.02200       42.02127       29.36765
H         29.43874       40.40233       28.26497
H         27.70809       39.95963       28.07424
H         28.65048       43.85288       29.78092
H         29.06740       42.40253       30.72508
H         30.01050       42.79647       29.23660
H         29.22857       40.17990       30.74592
H         27.47247       39.77869       30.54628
H         28.74835       38.69027       29.88285
N         26.86025       41.31595       25.55533
C         25.78230       40.65143       24.83194
C         26.01998       40.76076       23.32354
O         26.99735       41.38337       22.91941
C         25.72418       39.19124       25.34564
C         24.49491       38.43920       24.92230
O         24.60791       37.29860       24.21593
O         23.38659       38.85415       25.22506
H         27.83007       41.11052       25.27128
H         24.80713       41.12986       25.07579
H         25.69785       39.21177       26.45717
H         26.63867       38.64461       25.03752
N         25.20241       40.14360       22.42634
C         25.46991       40.09212       20.99958
C         26.04791       38.74336       20.63193
O         26.31104       37.93617       21.51585
H         24.39574       39.59931       22.75546
H         26.21344       40.85941       20.69177
H         24.52735       40.29466       20.44737
N         26.31696       38.44449       19.33130
C         26.99583       37.21104       18.92714
C         26.21600       35.96467       19.34664
O         25.01567       36.06685       19.55819
C         27.21444       37.19723       17.39803
C         28.07683       38.34377       16.95135
O         29.33822       38.45836       17.40959
O         27.64252       39.16971       16.16466
H         26.06985       39.14521       18.61433
H         27.97951       37.20624       19.44273
H         26.22495       37.24290       16.89042
H         27.71102       36.26584       17.07037
N         26.81245       34.74475       19.52602
C         28.24863       34.52143       19.37786
C         28.69861       33.10976       19.72020
O         27.86646       32.30714       20.11894
H         26.20468       33.96467       19.81903
H         28.75968       35.19830       20.08627
H         28.54298       34.73724       18.34092
N         30.00471       32.69613       19.64471
C         31.16729       33.44500       19.15948
C         31.37368       34.75038       19.89037
O         30.95671       35.79261       19.40183
C         31.21604       33.61272       17.62724
C         31.23754       32.25248       16.91151
C         31.53178       32.41056       15.44318
N         32.72137       32.91264       15.03121
O         30.70165       32.06294       14.61737
H         30.20391       31.73691       19.97135
H         32.06951       32.82798       19.37799
H         32.16060       34.15248       17.39691
H         30.37885       34.22665       17.24100
H         30.25651       31.75053       17.06124
H         32.03137       31.60288       17.34042
H         33.44341       33.19075       15.71251
H         32.93119       33.01149       14.02729
N         32.08056       34.76865       21.05208
C         32.28045       35.97856       21.83923
C         31.76834       35.76157       23.24862
O         31.42025       34.64291       23.60477
C         33.77286       36.41437       21.83113
C         34.22297       36.78238       20.41028
C         34.71421       35.34911       22.41402
H         32.48181       33.88394       21.39965
H         31.68454       36.81609       21.41289
H         33.86874       37.32780       22.45523
H         34.16641       35.90212       19.73464
H         33.57903       37.58984       20.00105
H         35.27084       37.15116       20.42291
H         34.41710       35.10207       23.44887
H         34.70255       34.41977       21.80755
H         35.75627       35.73303       22.44121
N         31.67903       36.81400       24.10559
C         31.24165       36.67907       25.48879
C         32.32521       37.20852       26.40950
O         32.05628       37.99045       27.31075
C         29.85076       37.32414       25.65013
C         29.81448       38.73440       25.11872
N         29.11087       39.02387       23.99800
O         30.44974       39.61199       25.67999
H         31.92905       37.75484       23.76292
H         31.12565       35.60626       25.75798
H         29.50317       37.28866       26.70522
H         29.14588       36.70515       25.05245
H         28.58509       38.29254       23.49623
H         29.10911       39.97791       23.61226
N         33.60406       36.78514       26.21280
C         34.74249       37.14735       27.04378
C         35.73038       37.99465       26.26020
O         35.52857       38.23550       25.07911
C         35.41661       35.87165       27.62240
C         35.80857       34.83653       26.58402
C         37.14309       34.70112       26.16507
C         34.83571       33.97403       26.04347
C         37.48959       33.73874       25.20786
C         35.18389       33.01262       25.09249
C         36.51287       32.89420       24.66741
O         36.86116       31.97376       23.74537
H         33.78460       36.18511       25.39911
H         34.41291       37.77773       27.89876
H         34.73942       35.38094       28.35380
H         36.31153       36.17167       28.20616
H         37.91346       35.34552       26.56920
H         33.80238       34.04425       26.36045
H         38.51903       33.64860       24.88483
H         34.41821       32.36358       24.68561
H         36.21376       31.37283       23.34858
N         36.81974       38.51203       26.89482
C         37.79797       39.38990       26.27222
C         37.79895       40.68020       27.07042
O         38.48492       40.75223       28.08242
C         39.16199       38.66672       26.28633
C         40.27640       39.45323       25.58546
C         41.56246       38.67437       25.60605
O         42.65244       39.18484       26.20998
O         41.62776       37.57770       25.07249
H         36.95966       38.29233       27.89307
H         37.53079       39.60449       25.21346
H         39.03609       37.69471       25.75939
H         39.46220       38.44807       27.33623
H         40.43087       40.42703       26.09704
H         39.99185       39.64732       24.52901
N         36.93117       41.69075       26.76203
C         36.74766       42.83379       27.65496
C         36.06829       42.41046       28.96080
O         36.00553       43.23274       29.86489
C         35.90082       43.96458       27.01994
C         36.58459       44.73088       25.88074
C         36.70331       43.93824       24.61976
O         35.58760       43.50920       24.00012
O         37.79805       43.72325       24.12703
H         36.35521       41.61187       25.91080
H         37.74774       43.25700       27.89946
H         35.71966       44.73018       27.80737
H         34.91767       43.57352       26.68573
H         37.57916       45.09076       26.22396
H         35.96540       45.62238       25.63919
N         35.51608       41.17061       29.13059
C         34.86080       40.74608       30.35148
H         33.80562       40.48221       30.12809
H         35.37711       39.84788       30.75046
H         34.86735       41.53140       31.13579
H         35.53046       40.48305       28.36653
Ca        35.67081       42.48892       21.99162
O         33.88640       43.62457       19.66270
H         33.44704       43.41544       18.80039
H         34.07869       44.59468       19.61611
O         35.17775       39.63000       22.31716
H         36.02870       39.24606       22.64577
H         34.61665       39.72454       23.12717
O         32.76349       40.69756       20.59728
H         32.65968       40.70917       19.61294
H         32.05443       41.30475       20.92675
O         36.23397       41.10748       19.28735
H         35.26890       40.94237       19.14121
H         36.35700       42.06616       19.07168
O         38.28823       41.02109       22.05193
H         38.53721       41.38717       21.16638
H         38.61416       41.69612       22.69776
O         36.95278       44.95838       20.80284
H         37.20382       44.98717       21.75985
H         36.69785       45.89004       20.58694

Ca 1.0



