%chk=apoCaM-CA-Ng.loop1.water3.frame972.chk
%nprocshared=20
%mem=10GB
%nosave
#b3lyp/svp scf=(tight,noincore,xqc) Test 
#IOP(5/87=12) Density=Current Pop=(MK,readradii) iop(6/33=2) iop(6/42=6)

apoCaM-CA-Ng.loop1.water3.frame972 

   0  1 
C         58.11628       33.44753       22.48359
C         57.62100       32.03319       22.49702
O         56.41682       31.84089       22.40485
H         59.22303       33.49377       22.54833
H         57.79269       33.93890       21.54223
H         57.68451       33.99703       23.34658
N         58.48942       30.98840       22.62992
C         58.04952       29.59935       22.66400
C         58.23655       29.02869       24.09074
O         59.38867       28.25532       24.15504
C         58.69631       28.75328       21.52652
C         60.21149       28.70891       21.44253
O         61.00079       29.40583       22.27967
O         60.73596       28.03069       20.57405
H         59.48990       31.19883       22.74951
H         56.95770       29.56132       22.46479
H         58.33988       29.15233       20.55392
H         58.32717       27.70913       21.62643
N         57.06487       28.23384       24.51453
C         57.25076       27.66122       25.86200
C         58.08261       26.39805       25.76907
O         57.63616       25.42959       25.16831
C         55.89071       27.31087       26.51929
C         56.07977       26.73128       27.93594
C         54.75390       26.30312       28.57180
C         55.00413       25.70269       29.96434
N         53.76018       25.23276       30.57102
H         56.26800       28.91105       24.55759
H         57.74582       28.41716       26.51548
H         55.35587       26.57150       25.88236
H         55.26214       28.22548       26.58814
H         56.57713       27.49100       28.57788
H         56.72899       25.83056       27.88797
H         54.27309       25.53561       27.92592
H         54.07366       27.17834       28.65659
H         55.46872       26.47151       30.62132
H         55.70906       24.84489       29.87929
H         53.97058       24.84100       31.51764
H         53.08558       26.02501       30.67259
H         53.33755       24.47896       29.98165
N         59.30435       26.34433       26.36202
C         60.11333       25.13324       26.43079
C         60.47406       24.84652       27.88058
O         60.29218       25.71855       28.72061
C         61.36727       25.27662       25.53539
C         62.12026       26.55316       25.80071
O         62.25827       27.45736       24.81740
O         62.53405       26.81468       26.91734
H         59.67105       27.20131       26.80423
H         59.51481       24.27098       26.06780
H         61.02529       25.28722       24.47649
H         62.04924       24.41227       25.65887
N         60.94799       23.64303       28.30324
C         61.12567       22.45058       27.49339
C         60.16630       21.37749       27.94418
O         59.36480       21.61314       28.83984
H         61.13572       23.54449       29.30404
H         62.17271       22.09400       27.60024
H         60.93307       22.62848       26.42110
N         60.16426       20.16465       27.32682
C         59.20563       19.12136       27.67936
C         59.38553       18.58251       29.09811
O         58.49233       17.88453       29.55776
C         59.23220       17.96216       26.66130
C         60.50774       17.15815       26.70649
O         61.69549       17.73115       26.43467
O         60.46709       15.97039       26.98398
H         60.81655       20.02200       26.54216
H         58.19629       19.58830       27.60977
H         59.08878       18.36823       25.63639
H         58.37405       17.28722       26.87581
N         60.50651       18.83906       29.83964
C         60.69729       18.35607       31.20298
C         60.85245       19.48613       32.20851
O         60.97074       19.19150       33.38936
H         61.27497       19.38455       29.42487
H         61.59737       17.70656       31.23365
H         59.82991       17.74257       31.53070
N         60.82019       20.79656       31.82889
C         60.81681       21.92970       32.74736
C         61.96968       22.86559       32.43358
O         62.21491       23.13221       31.26987
C         59.48349       22.69040       32.57852
C         58.28502       21.79723       32.92033
O         59.47587       23.80777       33.42811
H         60.72792       21.02906       30.83351
H         60.88505       21.60332       33.80935
H         59.40113       23.02240       31.51514
H         58.81425       24.44746       33.05610
H         57.34253       22.36874       32.79006
H         58.24486       20.91123       32.25218
H         58.35173       21.45222       33.97451
N         62.70510       23.43520       33.42733
C         63.79278       24.38112       33.17082
C         65.13227       23.74811       33.52540
O         66.16041       24.32782       33.21013
C         63.53491       25.70149       33.97159
C         62.12390       26.29645       33.71520
C         64.61253       26.78135       33.74438
C         61.86215       26.76411       32.28161
H         62.47769       23.20080       34.40666
H         63.84662       24.61535       32.08542
H         63.56122       25.44040       35.05359
H         61.97465       27.16453       34.39429
H         61.35441       25.54574       33.98688
H         64.69018       27.05417       32.67169
H         64.36942       27.69123       34.33298
H         65.60698       26.44901       34.09768
H         61.95452       25.92531       31.56339
H         60.82852       27.16488       32.21555
H         62.55844       27.57825       31.99496
N         65.19919       22.55045       34.17330
C         66.44422       21.92386       34.58187
C         66.50393       21.88264       36.09755
O         65.55243       22.28374       36.75436
C         66.59088       20.53267       33.90959
C         65.40255       19.59399       34.16155
O         66.72734       20.69889       32.52190
H         64.33802       22.06570       34.44912
H         67.31618       22.53880       34.26909
H         67.49893       20.02332       34.30591
H         67.66437       20.98478       32.35710
H         64.47132       19.99241       33.70445
H         65.59776       18.61057       33.68454
H         65.24069       19.43960       35.24801
N         67.64059       21.46600       36.71898
C         67.81993       21.50475       38.16362
C         68.96335       22.45189       38.49706
O         68.73912       23.41497       39.21788
C         68.02594       20.06899       38.71087
C         68.20110       20.06070       40.23471
O         69.13061       19.45390       38.10177
H         68.42794       21.14255       36.13836
H         66.90586       21.89922       38.66245
H         67.10431       19.49435       38.45636
H         69.04443       18.47759       38.25961
H         69.11774       20.61475       40.52921
H         67.32071       20.52608       40.72638
H         68.29333       19.01519       40.59743
N         70.21923       22.22221       38.02130
C         71.38066       23.03950       38.34720
C         72.13899       23.44079       37.09953
O         72.33926       22.60163       36.23068
C         72.31725       22.33211       39.36010
C         73.16773       21.11563       38.92296
C         72.38065       19.84436       38.56769
C         73.27463       18.62388       38.28964
N         74.01953       18.18612       39.47140
H         70.35384       21.41162       37.41436
H         71.05592       23.95888       38.88438
H         71.72212       22.05644       40.25841
H         73.05393       23.10119       39.68555
H         73.80714       20.89036       39.80033
H         73.83751       21.39324       38.08125
H         71.82677       20.00856       37.63189
H         71.66934       19.59694       39.38558
H         73.97905       18.84808       37.45816
H         72.61391       17.79026       37.96135
H         74.73178       18.89665       39.74965
H         73.36291       18.00308       40.26470
H         74.52357       17.29959       39.24146
N         72.70614       24.67669       36.99949
C         73.58759       25.02730       35.89279
C         72.82821       25.12134       34.57276
O         73.17562       24.36760       33.67504
C         74.43157       26.28512       36.20940
C         75.55467       26.48716       35.17541
C         76.48768       27.61203       35.53682
O         77.43800       27.85844       34.81181
O         76.30516       28.34108       36.65594
H         72.59299       25.33905       37.78280
H         74.33973       24.20777       35.81428
H         74.91287       26.12007       37.19919
H         73.81667       27.20382       36.27856
H         75.11332       26.69138       34.17666
H         76.16126       25.55687       35.11314
N         71.79556       25.98360       34.32661
C         71.21277       26.92025       35.26624
H         70.13157       26.69537       35.37879
H         71.66137       26.87969       36.27064
H         71.32066       27.95204       34.87032
H         71.37082       25.96821       33.38598
Ca        61.12874       29.37129       25.07293
O         63.69816       30.12450       26.91876
H         64.65046       30.39488       26.94164
H         63.60669       29.47403       27.65967
O         64.22115       29.13748       23.59405
H         63.97704       28.69925       22.74018
H         64.71683       28.44239       24.09625
O         59.85249       29.83094       27.73449
H         60.45488       29.68393       28.50619
H         59.60609       30.78836       27.78649

Ca 1.0



