%chk=apoCaM-CA-Ng.loop1.water3.frame1238.chk
%nprocshared=20
%mem=10GB
%nosave
#b3lyp/svp scf=(tight,noincore,xqc) Test 
#IOP(5/87=12) Density=Current Pop=(MK,readradii) iop(6/33=2) iop(6/42=6)

apoCaM-CA-Ng.loop1.water3.frame1238 

   0  1 
C         82.52857       51.00003       24.24802
C         81.20184       50.92846       24.94097
O         80.66518       49.83833       25.08407
H         83.29074       51.37834       24.95985
H         82.83998       49.99541       23.88877
H         82.46547       51.68500       23.37628
N         80.59369       52.07229       25.36918
C         79.29571       52.08292       26.03567
C         78.21873       52.53629       25.07135
O         77.47847       53.47351       25.33570
C         79.32514       52.85783       27.37363
C         79.72663       54.30548       27.25819
O         78.85448       55.27415       27.59556
O         80.85529       54.61191       26.90975
H         81.04961       52.96914       25.15124
H         79.00271       51.04581       26.30055
H         80.02180       52.35455       28.07713
H         78.30600       52.80232       27.81792
N         78.04460       51.81102       23.93496
C         76.93877       51.98256       23.00450
C         75.60981       51.75437       23.71613
O         74.75869       52.62551       23.60504
C         77.07036       51.04358       21.77075
C         78.42488       51.15574       21.03185
C         78.73338       52.56499       20.49656
C         80.18438       52.70837       20.00667
N         80.51366       51.79859       18.91084
H         78.71211       51.04900       23.76265
H         76.94540       53.02323       22.61878
H         76.24602       51.26947       21.05838
H         76.95448       49.98422       22.07934
H         78.41898       50.43635       20.18507
H         79.24202       50.84340       21.71038
H         78.63596       53.31125       21.30866
H         78.01168       52.82576       19.69210
H         80.87719       52.52489       20.85925
H         80.33470       53.75759       19.66874
H         81.49393       51.99183       18.60212
H         80.46735       50.80508       19.23074
H         79.86496       51.95239       18.10612
N         75.32708       50.67175       24.50791
C         76.23547       49.57389       24.84510
C         76.60027       49.63179       26.33352
O         76.14409       50.52399       27.03467
C         75.61350       48.23241       24.42823
C         74.37692       47.94280       25.20488
O         74.45176       47.86052       26.54285
O         73.31088       47.76649       24.63738
H         74.39756       50.65369       24.95748
H         77.17504       49.63147       24.28705
H         76.33260       47.40624       24.60950
H         75.39043       48.24737       23.33805
N         77.45859       48.71964       26.87253
C         77.92460       48.75677       28.25483
C         76.86056       48.48174       29.30393
O         75.70285       48.27668       28.97346
H         77.85888       47.99768       26.25675
H         78.39370       49.74360       28.45667
H         78.70504       47.97550       28.37646
N         77.23412       48.41663       30.61780
C         76.33094       48.11939       31.73778
C         77.12427       47.70890       32.98520
O         78.20125       48.24841       33.20114
C         75.48228       49.34756       32.14350
C         74.49785       49.78445       31.10652
O         73.51882       48.94717       30.71250
O         74.55367       50.91349       30.64709
H         78.24144       48.52460       30.81190
H         75.67146       47.28023       31.44441
H         76.16313       50.18848       32.40343
H         74.88923       49.10616       33.05208
N         76.63213       46.84922       33.93060
C         75.35455       46.15880       33.83870
C         75.37927       45.08594       32.78225
O         76.42432       44.84079       32.19424
H         77.18828       46.69452       34.78597
H         74.54590       46.89246       33.64248
H         75.12946       45.65815       34.80508
N         74.24092       44.39831       32.48004
C         74.21687       43.36376       31.45171
C         74.67612       43.93177       30.12241
O         74.48708       45.11490       29.87309
C         72.81975       42.70187       31.34817
C         72.78882       41.55580       30.32969
O         71.85486       43.66075       31.00304
H         73.37407       44.62711       32.99109
H         74.94015       42.57640       31.76171
H         72.58792       42.28161       32.35445
H         70.96888       43.27383       31.23086
H         73.56186       40.79668       30.57141
H         71.79557       41.06468       30.35709
H         72.95787       41.93721       29.30115
N         75.34288       43.12879       29.24650
C         75.89529       43.55435       27.96982
C         74.77690       44.05832       27.07693
O         74.37563       45.19815       27.21995
C         77.06103       44.58247       28.16002
C         78.14379       43.98223       29.09891
C         77.66604       44.98047       26.79996
C         79.26736       44.95419       29.46709
H         75.48160       42.13878       29.50152
H         76.33251       42.64907       27.49165
H         76.66105       45.50244       28.63870
H         78.58374       43.07204       28.63656
H         77.66989       43.68351       30.05732
H         78.09279       44.09314       26.28685
H         76.89593       45.43701       26.14505
H         78.46399       45.73899       26.92252
H         79.95988       44.45668       30.17928
H         79.86094       45.25208       28.58038
H         78.84963       45.85842       29.95840
N         74.21738       43.24390       26.13905
C         73.16926       43.68587       25.21842
C         71.86712       42.89609       25.36330
O         70.95418       43.16003       24.58875
C         73.69918       43.61275       23.76424
C         74.02120       42.18409       23.30779
O         74.85685       44.39761       23.63739
H         74.56044       42.27646       26.06611
H         72.91758       44.75028       25.40710
H         72.91533       44.00031       23.07086
H         74.56105       45.34458       23.60295
H         73.12107       41.53737       23.37513
H         74.35868       42.19933       22.25082
H         74.83317       41.73728       23.91664
N         71.69102       41.91190       26.29087
C         70.47225       41.10216       26.35439
C         69.25626       41.97206       26.66530
O         69.22041       42.58371       27.72388
C         70.62936       39.96617       27.39218
C         69.42439       39.01942       27.39677
O         71.78295       39.22411       27.08405
H         72.45977       41.69727       26.94333
H         70.34340       40.61729       25.36044
H         70.73416       40.43005       28.39859
H         72.11375       38.83242       27.93436
H         69.58426       38.21707       28.14802
H         68.49229       39.56111       27.66013
H         69.30171       38.54936       26.39739
N         68.22946       42.06116       25.76287
C         67.03575       42.91079       25.86715
C         67.29029       44.19953       26.63177
O         66.60141       44.50649       27.59296
C         65.81578       42.11607       26.37498
C         65.51776       40.89958       25.48522
C         64.24602       40.17059       25.93156
C         64.00244       38.92967       25.06095
N         62.79006       38.22511       25.47474
H         68.31154       41.51289       24.89311
H         66.79267       43.25073       24.83491
H         64.93012       42.79056       26.36083
H         65.99047       41.78096       27.42061
H         66.37535       40.19435       25.53418
H         65.38646       41.23433       24.43217
H         63.37665       40.85996       25.84665
H         64.35151       39.85627       26.99260
H         64.87279       38.24184       25.15136
H         63.90439       39.23212       23.99424
H         61.95609       38.84483       25.35542
H         62.66897       37.37539       24.87738
H         62.87003       37.92690       26.47401
N         68.32505       44.98184       26.23731
C         68.74875       46.21826       26.87849
C         70.18302       46.56242       26.44459
O         71.06003       45.73462       27.14054
C         67.81147       47.43079       26.65683
C         66.83315       47.67247       27.81495
C         66.11831       48.98076       27.63101
O         66.30034       49.97848       28.51852
O         65.38352       49.15265       26.67214
H         68.89966       44.61829       25.46344
H         68.85277       46.06351       27.97699
H         67.30111       47.37819       25.67204
H         68.44693       48.34652       26.66137
H         67.41754       47.73393       28.76163
H         66.09210       46.85877       27.90818
N         70.54572       46.58590       25.00865
C         69.54261       47.06266       24.05827
H         69.12737       48.04154       24.36322
H         70.02942       47.20400       23.07002
H         68.73970       46.30823       23.92022
H         70.89923       45.65980       24.68740
Ca        72.61613       47.24831       27.58415
O         71.18875       46.70881       30.33869
H         70.46009       46.05834       30.49968
H         72.02316       46.19492       30.47543
O         70.30119       49.00288       28.77145
H         70.66146       49.46557       29.56927
H         70.36454       49.67109       28.04396
O         73.18090       50.26148       28.02725
H         72.71189       50.80477       28.70871
H         73.57938       50.92790       27.41503

Ca 1.0



