%chk=apoCaM-CA-Ng.loop3.water7.frame1092.chk
%nprocshared=20
%mem=10GB
%nosave
#b3lyp/svp scf=(tight,noincore,xqc) Test 
#IOP(5/87=12) Density=Current Pop=(MK,readradii) iop(6/33=2) iop(6/42=6)

apoCaM-CA-Ng.loop3.water7.frame1092 

   0  1 
C         49.23628       82.49291       11.98796
C         50.27136       83.15286       11.12252
O         49.96628       84.16627       10.51049
H         48.36770       82.19678       11.36165
H         49.63651       81.57987       12.47802
H         48.89611       83.19800       12.77349
N         51.51368       82.60633       10.99748
C         52.54524       83.13713       10.10996
C         52.79067       82.19972        8.93247
O         53.60842       82.52587        8.08346
C         53.84342       83.44580       10.88885
C         54.53402       82.23208       11.46018
O         55.66047       81.94327       11.08886
O         53.94182       81.48224       12.40850
H         51.71178       81.73582       11.51126
H         52.20465       84.09938        9.66803
H         53.61896       84.15571       11.71382
H         54.54607       83.95598       10.19289
N         52.07377       81.04519        8.78748
C         52.16220       80.13766        7.65600
C         51.75281       80.86573        6.38352
O         52.48914       80.87055        5.40687
C         53.54419       79.44223        7.61678
C         53.52848       78.16795        6.75495
C         54.88094       77.43941        6.82093
C         54.88487       76.09145        6.07590
N         53.99733       75.10496        6.69991
H         51.37214       80.78545        9.49345
H         51.40487       79.34086        7.83578
H         53.78344       79.11575        8.65369
H         54.33796       80.14774        7.28878
H         53.28581       78.40504        5.69760
H         52.73570       77.50812        7.16271
H         55.16498       77.25347        7.88008
H         55.65360       78.09758        6.36698
H         55.92295       75.69167        6.10153
H         54.60104       76.23859        5.01077
H         52.99684       75.39092        6.61661
H         54.11050       74.18768        6.21130
H         54.24922       74.97812        7.70750
N         50.56034       81.53201        6.36166
C         50.03762       82.25738        5.20666
C         49.89483       83.75694        5.47069
O         49.39590       84.45120        4.59540
C         48.69100       81.64364        4.76065
C         47.56184       81.83386        5.74346
O         46.57402       82.47089        5.41425
O         47.61026       81.28223        6.97050
H         49.99504       81.52631        7.22224
H         50.73060       82.14930        4.34328
H         48.82636       80.55843        4.56434
H         48.40047       82.12034        3.79781
N         50.35983       84.33967        6.61462
C         50.29989       85.77364        6.87211
C         51.67202       86.38210        6.67904
O         52.56799       85.66951        6.24521
H         50.85612       83.76837        7.31303
H         49.92642       85.91860        7.90578
H         49.60314       86.29198        6.17938
N         51.96240       87.68922        6.93778
C         51.06612       88.68947        7.51961
C         50.65690       88.26786        8.92672
O         51.54140       87.91830        9.69647
C         51.84147       90.03172        7.61287
C         51.03748       91.16018        8.21130
N         51.40942       91.72336        9.38560
O         50.05114       91.57912        7.62545
H         52.92859       87.98576        6.72112
H         50.18716       88.84064        6.85840
H         52.17482       90.34539        6.59941
H         52.75458       89.86707        8.22717
H         52.23962       91.38698        9.89551
H         50.86163       92.49509        9.79373
N         49.37365       88.32021        9.39272
C         48.23378       88.81691        8.63386
C         47.04148       88.99286        9.55160
O         46.55077       88.00783       10.08352
H         49.22535       88.05627       10.38053
H         47.99428       88.13725        7.78875
H         48.48885       89.80800        8.22060
N         46.58486       90.24553        9.85410
C         45.58204       90.49139       10.88884
C         44.18148       90.05249       10.46370
O         43.93784       89.84039        9.28486
C         45.59122       91.99627       11.26312
C         44.79091       92.32691       12.49947
C         43.67213       93.17257       12.42419
C         45.17173       91.80266       13.74726
C         42.94145       93.48000       13.57637
C         44.44217       92.11381       14.89747
C         43.32247       92.95335       14.81532
O         42.60859       93.26075       15.91692
H         47.06325       91.05466        9.42769
H         45.90191       89.90750       11.78027
H         45.22844       92.57734       10.38614
H         46.63655       92.31989       11.46479
H         43.36265       93.59189       11.47527
H         46.03701       91.15715       13.83109
H         42.07854       94.12990       13.50608
H         44.74934       91.70299       15.85107
H         42.84016       92.91766       16.79194
N         43.21332       89.88287       11.41072
C         41.82866       89.48338       11.13236
C         41.03901       90.56305       10.39491
O         41.57662       91.62478       10.10902
C         41.10006       89.03571       12.44830
C         41.71835       87.74889       13.05064
C         41.04295       90.15160       13.51222
C         41.56512       86.52394       12.13764
H         43.50981       89.98895       12.38785
H         41.84253       88.61852       10.44284
H         40.04630       88.77947       12.21916
H         41.18132       87.50797       13.99370
H         42.79114       87.90011       13.29551
H         40.44444       89.80967       14.38348
H         42.04423       90.42537       13.89752
H         40.55683       91.06104       13.10218
H         42.12886       86.62926       11.19101
H         41.95934       85.62475       12.65338
H         40.49292       86.35286       11.89932
N         39.73789       90.32631       10.03830
C         38.91753       91.23526        9.24267
C         38.41414       90.51689        7.99682
O         38.60980       89.31405        7.88089
C         37.74647       91.76726       10.08316
O         36.93656       90.70973       10.51996
H         39.30107       89.43548       10.31606
H         39.52680       92.10603        8.91498
H         37.14000       92.47597        9.47640
H         38.16276       92.30976       10.96229
H         36.25149       91.11496       11.11312
N         37.78905       91.20932        6.99863
C         37.37796       90.61944        5.72464
C         36.21674       89.63828        5.83582
O         35.98377       88.92179        4.87223
C         38.58720       89.99230        5.00169
H         37.65991       92.22627        7.11256
H         37.02000       91.43525        5.05899
H         38.98804       89.10757        5.53540
H         38.29770       89.65837        3.98283
H         39.39655       90.74529        4.89836
N         35.39712       89.59139        6.93165
C         34.25509       88.68378        7.04607
C         34.75213       87.25575        7.04687
O         34.43439       86.48274        6.15241
C         33.19710       88.95963        5.96042
H         35.57354       90.22695        7.72300
H         33.74945       88.86015        8.02182
H         32.85337       90.01310        6.02772
H         33.57705       88.77610        4.93577
H         32.31832       88.29713        6.11604
N         35.56914       86.85506        8.05697
C         36.19458       85.54651        8.12852
C         35.65100       84.78970        9.32264
O         35.09158       83.71786        9.13367
C         37.71820       85.75394        8.19958
C         38.51131       84.44096        8.23795
C         39.99721       84.67730        8.30068
O         40.46232       85.80749        8.32166
O         40.83037       83.62370        8.34998
H         35.77669       87.52922        8.81085
H         35.97197       84.95278        7.21280
H         37.96917       86.35910        9.09895
H         38.03020       86.32949        7.29898
H         38.28219       83.84435        7.32913
H         38.21947       83.85528        9.13550
N         35.76447       85.28736       10.58460
C         35.23402       84.58516       11.73267
H         34.13682       84.44964       11.61989
H         35.72147       83.59177       11.82898
H         35.42625       85.16971       12.65693
H         36.23196       86.19250       10.73991
Ca        43.03976       84.00988        8.56514
O         46.00377       84.49771        7.72899
H         45.74408       83.54964        7.84858
H         46.64300       84.67333        8.46408
O         44.65443       85.44651       10.66623
H         44.55837       86.42713       10.75868
H         45.21839       85.17672       11.43359
O         43.11354       81.05262        7.86130
H         42.41630       81.02875        7.15869
H         43.95158       81.25397        7.37354
O         43.25740       84.36622        5.62973
H         42.77683       84.03102        4.83208
H         44.12078       84.70248        5.28081
O         41.56324       83.10173       11.33322
H         41.75949       82.16848       11.59888
H         40.62100       83.07995       11.02998
O         44.66886       82.30350       10.38703
H         44.42894       81.98154       11.29175
H         45.65394       82.21740       10.34227
O         43.51076       86.86302        7.56003
H         43.47980       87.31209        6.67829
H         43.22303       87.55678        8.20410

Ca 1.0



