%chk=apoCaM-CA-Ng.loop1.water3.frame1034.chk
%nprocshared=20
%mem=10GB
%nosave
#b3lyp/svp scf=(tight,noincore,xqc) Test 
#IOP(5/87=12) Density=Current Pop=(MK,readradii) iop(6/33=2) iop(6/42=6)

apoCaM-CA-Ng.loop1.water3.frame1034 

   0  1 
C         23.25190       34.29242       72.39324
C         23.13842       35.34663       73.45186
O         22.22384       36.15509       73.39425
H         22.47411       34.42735       71.61201
H         24.25561       34.32024       71.92136
H         23.10127       33.30101       72.87205
N         24.03204       35.36464       74.47913
C         23.90438       36.22122       75.65274
C         24.63712       37.53827       75.43345
O         25.60861       37.81697       76.12428
C         24.43187       35.48196       76.90964
C         23.76925       34.14657       77.13888
O         23.04553       33.93466       78.25338
O         23.91682       33.23453       76.34028
H         24.77410       34.64793       74.47728
H         22.83115       36.43510       75.85126
H         24.24374       36.12973       77.79465
H         25.52771       35.31406       76.82790
N         24.19357       38.42141       74.49747
C         24.85259       39.68434       74.20590
C         24.14960       40.87762       74.84868
O         24.89052       41.70194       75.36957
C         25.08192       39.87544       72.69305
C         26.09627       38.86915       72.10695
C         26.28648       39.13312       70.60267
C         27.34128       38.24363       69.91994
N         27.00829       36.82051       69.98842
H         23.34247       38.19518       73.97380
H         25.87500       39.69429       74.65097
H         25.50341       40.89273       72.52795
H         24.11394       39.80804       72.15370
H         25.73474       37.83223       72.27018
H         27.07551       38.99089       72.62395
H         26.60968       40.18837       70.46298
H         25.31191       38.99705       70.08691
H         28.34546       38.41630       70.36705
H         27.39114       38.54821       68.84992
H         26.03630       36.65648       69.63955
H         27.67603       36.28773       69.38467
H         27.10304       36.47246       70.96892
N         22.80303       41.13019       74.90329
C         21.69087       40.35840       74.34136
C         21.14513       39.28519       75.30022
O         21.56173       39.21404       76.44729
C         20.54733       41.32668       73.92002
C         19.86303       42.01655       75.08528
O         18.54777       41.81996       75.28610
O         20.48581       42.72259       75.85965
H         22.57712       42.02790       75.34523
H         22.04384       39.87268       73.40990
H         19.77931       40.74680       73.37111
H         20.95229       42.08606       73.21928
N         20.21546       38.38897       74.84963
C         19.68350       37.26687       75.62099
C         18.49031       37.59761       76.48805
O         17.67933       38.40929       76.08302
H         19.94749       38.43461       73.85453
H         20.47493       36.69630       76.14668
H         19.24703       36.55879       74.88312
N         18.23119       36.87383       77.61861
C         16.98272       36.98405       78.38402
C         16.28852       35.61622       78.44425
O         16.95746       34.61385       78.23587
C         17.28231       37.52178       79.79801
C         17.86236       38.90225       79.69196
O         17.13073       39.90107       79.14377
O         19.01217       39.10384       80.04514
H         18.92461       36.17336       77.92172
H         16.30796       37.70372       77.88597
H         17.99567       36.83328       80.30371
H         16.37381       37.58420       80.42536
N         14.95766       35.45242       78.71981
C         14.01351       36.53545       78.92222
C         13.79126       37.35389       77.67134
O         14.25372       36.99190       76.59749
H         14.58650       34.49075       78.78403
H         14.35966       37.18059       79.74830
H         13.02483       36.12235       79.22362
N         13.06800       38.49926       77.76264
C         12.75501       39.35727       76.62505
C         14.00483       39.90300       75.92281
O         15.04181       40.07497       76.54444
C         11.81727       40.49939       77.09442
C         11.36335       41.40585       75.94650
O         12.46117       41.25683       78.08614
H         12.69976       38.75232       78.69337
H         12.19310       38.73533       75.89221
H         10.91349       40.01917       77.53617
H         11.80588       41.91811       78.42993
H         10.86101       40.80848       75.15845
H         10.64064       42.15565       76.32974
H         12.22835       41.94676       75.51029
N         13.92788       40.18764       74.58886
C         14.96742       40.73259       73.71547
C         15.36435       42.15897       74.07471
O         15.81057       42.41647       75.18289
C         16.23744       39.84626       73.56505
C         15.94122       38.33480       73.40368
C         17.08951       40.35342       72.37602
C         14.98408       37.97300       72.26739
H         13.02857       39.99099       74.12429
H         14.51458       40.75437       72.69947
H         16.85677       39.95087       74.47392
H         15.50699       37.95023       74.34895
H         16.90524       37.79998       73.24634
H         17.41974       41.40156       72.53716
H         17.99904       39.73172       72.24706
H         16.51386       40.32495       71.42668
H         14.86661       36.86946       72.23375
H         13.98273       38.41400       72.44715
H         15.36761       38.31413       71.28547
N         15.32826       43.11581       73.10442
C         15.87895       44.46174       73.26061
C         15.08242       45.34851       74.21110
O         15.52350       46.46204       74.46315
C         15.99930       45.15559       71.87118
C         14.63628       45.42781       71.19701
O         16.84600       44.41167       71.02467
H         14.99499       42.82422       72.17630
H         16.91236       44.36009       73.66376
H         16.48452       46.14601       72.01022
H         16.31929       43.68860       70.59441
H         14.79553       45.91624       70.21313
H         14.06381       44.49296       71.02578
H         14.01834       46.10350       71.82422
N         13.88123       44.96092       74.72620
C         13.04684       45.84322       75.53570
C         13.72990       46.19018       76.84489
O         13.85993       45.32028       77.69349
C         11.67688       45.16338       75.79289
C         10.74498       45.96185       76.70460
O         11.02291       44.95360       74.56501
H         13.51312       44.03297       74.47879
H         12.86637       46.77635       74.95522
H         11.85908       44.19469       76.31279
H         11.15487       44.00357       74.30964
H         10.52587       46.95743       76.26837
H          9.79370       45.40056       76.82981
H         11.19303       46.08997       77.71253
N         14.18107       47.45891       77.07785
C         14.74614       47.89662       78.34901
C         15.89984       47.00816       78.76368
O         15.82102       46.35135       79.79382
C         13.63434       48.01978       79.42145
C         12.62030       49.09816       78.99112
C         11.49822       49.39183       79.99598
C         12.00995       49.93358       81.34074
N         10.89972       50.42767       82.15573
H         14.11502       48.15946       76.32383
H         15.16434       48.92212       78.23125
H         14.10963       48.33667       80.37445
H         13.12293       47.04710       79.58746
H         12.14347       48.78538       78.03731
H         13.16525       50.05054       78.80622
H         10.87324       48.48804       80.16233
H         10.86046       50.17355       79.52771
H         12.71735       50.77357       81.16245
H         12.54701       49.13104       81.89213
H         10.20751       49.66470       82.33366
H         11.27062       50.77653       83.06889
H         10.42812       51.22264       81.66455
N         17.03243       46.97647       78.00479
C         18.19815       46.17512       78.35172
C         18.54163       45.20983       77.21578
O         18.37978       44.02201       77.45586
C         19.34651       47.08518       78.84995
C         18.98281       47.70537       80.21443
C         20.00977       48.69882       80.66970
O         20.69221       48.49380       81.81197
O         20.20586       49.71584       80.02323
H         17.07794       47.57857       77.16961
H         17.96027       45.51915       79.22003
H         19.54951       47.90613       78.14175
H         20.27750       46.49209       78.97791
H         18.89621       46.88819       80.96512
H         18.00791       48.23417       80.16192
N         18.99465       45.53974       75.96659
C         19.30708       46.85066       75.44552
H         20.38331       46.87074       75.16405
H         18.70396       47.03538       74.53380
H         19.11027       47.66878       76.14247
H         19.15657       44.76814       75.30326
Ca        17.82035       40.85985       77.20432
O         15.27296       42.75032       78.25376
H         14.45673       42.58203       77.72354
H         15.69933       43.51407       77.79233
O         17.63659       42.71071       80.20022
H         17.77332       41.90762       80.76251
H         18.54325       43.09241       80.09108
O         20.30186       41.60499       78.38149
H         19.79540       41.19964       79.12510
H         21.14359       41.08848       78.34332

Ca 1.0



