%chk=apoCaM-CA-Ng.loop2.water4.frame1183.chk
%nprocshared=20
%mem=10GB
%nosave
#b3lyp/svp scf=(tight,noincore,xqc) Test 
#IOP(5/87=12) Density=Current Pop=(MK,readradii) iop(6/33=2) iop(6/42=6)

apoCaM-CA-Ng.loop2.water4.frame1183 

   -2  1 
C         37.68331       35.85927        5.67790
C         37.01867       36.97446        6.43822
O         35.80337       36.93636        6.56572
H         38.38954       35.29181        6.30551
H         36.92206       35.13473        5.31840
H         38.20929       36.27425        4.79360
N         37.69901       38.04371        6.94529
C         39.14853       38.23924        6.88347
C         39.46013       39.73293        7.08303
O         38.81219       40.53576        6.42635
C         39.88142       37.28516        7.88286
C         39.32200       37.43419        9.27102
O         40.05474       37.91311       10.28950
O         38.14867       37.16461        9.47580
H         37.13089       38.79000        7.37475
H         39.48638       38.02836        5.84719
H         40.97522       37.46499        7.86107
H         39.75965       36.22629        7.60797
N         40.44595       40.18452        7.91729
C         40.79082       41.58616        8.13535
C         39.67253       42.32911        8.84648
O         39.30116       43.41850        8.43035
C         41.24776       42.27061        6.83145
H         41.02267       39.51557        8.43935
H         41.65879       41.60274        8.83207
H         40.42383       42.33908        6.09141
H         41.59980       43.30329        7.03979
H         42.08479       41.70259        6.37336
N         39.08965       41.77733        9.94988
C         38.05055       42.44299       10.73383
C         38.30098       42.27435       12.23310
O         39.22320       41.57486       12.63162
C         36.65664       41.89850       10.33314
C         36.55696       40.41665       10.54417
O         36.78290       39.90060       11.76279
O         36.38157       39.67115        9.59593
H         39.36567       40.81992       10.21749
H         38.05002       43.53263       10.51229
H         36.48578       42.12718        9.25750
H         35.85993       42.40718       10.91417
N         37.47821       42.89196       13.12556
C         37.56208       42.73166       14.57071
C         37.10009       41.36326       15.03731
O         36.83127       40.49419       14.22694
H         36.74845       43.52390       12.76403
H         36.85965       43.46165       15.02697
H         38.58506       42.96446       14.93756
N         36.92106       41.12434       16.36483
C         36.37283       39.86768       16.87965
C         34.97222       39.63352       16.34113
O         34.20360       40.58149       16.24597
C         36.27353       39.87899       18.41943
C         37.62028       39.92770       19.10017
N         38.01821       38.91478       19.90580
O         38.35433       40.89042       18.93837
H         37.13977       41.88663       17.02320
H         37.03008       39.01654       16.59011
H         35.75422       38.94619       18.73566
H         35.65253       40.73778       18.75621
H         37.41678       38.09276       20.06333
H         38.93366       38.95151       20.37730
N         34.54711       38.37046       16.04412
C         33.18861       38.07740       15.60687
C         32.15678       38.42126       16.67075
O         32.53773       38.84628       17.75281
H         35.20352       37.58098       16.14688
H         33.10408       36.98982       15.38951
H         32.98369       38.64516       14.67500
N         30.81525       38.26730       16.47445
C         30.18696       37.76808       15.25656
C         29.24367       38.81002       14.68784
O         28.39431       39.31795       15.40876
C         29.39764       36.46937       15.53117
C         30.32396       35.31467       15.91343
O         28.44619       36.67710       16.54486
H         30.18889       38.52247       17.25515
H         30.93901       37.51626       14.48073
H         28.88817       36.18742       14.57682
H         27.68277       36.07113       16.35609
H         31.06000       35.13484       15.10000
H         30.86805       35.53734       16.85434
H         29.72661       34.38857       16.05032
N         29.29723       39.11355       13.36032
C         28.36663       40.03149       12.69872
C         26.90895       39.60664       12.90908
O         26.67989       38.45957       13.26503
C         28.66970       40.12132       11.16830
C         28.57098       38.73066       10.47202
C         30.03121       40.80067       10.93290
C         28.63978       38.79589        8.94724
H         30.02265       38.64482       12.80230
H         28.49895       41.02393       13.18168
H         27.90040       40.76275       10.71050
H         27.59383       38.26525       10.71964
H         29.37087       38.04755       10.82341
H         30.86579       40.20527       11.35600
H         30.22488       40.95155        9.85382
H         30.03594       41.80512       11.40786
H         28.52998       37.77017        8.53529
H         27.81077       39.41948        8.55346
H         29.61123       39.19831        8.59867
N         25.84995       40.46411       12.76672
C         25.94469       41.89575       12.48132
C         24.83639       42.36106       11.54076
O         23.96427       41.57395       11.18851
C         25.93193       42.69151       13.80780
C         24.67570       42.51050       14.61886
O         24.34667       41.30081       15.11077
O         23.96770       43.47222       14.87037
H         24.91738       40.08781       13.00195
H         26.90496       42.13873       11.99378
H         26.07128       43.77129       13.58765
H         26.79633       42.37437       14.42982
N         24.80213       43.65472       11.11052
C         23.69871       44.22023       10.34066
C         24.20022       45.40191        9.51474
O         24.76762       46.30983       10.11574
C         22.61678       44.69244       11.33650
C         21.32993       45.10556       10.66656
C         20.87619       46.43401       10.73252
C         20.55069       44.14678        9.99555
C         19.66437       46.79457       10.13293
C         19.33823       44.51008        9.40361
C         18.89513       45.83298        9.47166
H         25.53917       44.29519       11.44532
H         23.26412       43.43485        9.68971
H         23.03402       45.52495       11.94650
H         22.36670       43.87004       12.04141
H         21.45663       47.18970       11.24675
H         20.87500       43.11491        9.94388
H         19.31790       47.81862       10.18549
H         18.73958       43.76383        8.89739
H         17.95404       46.11152        9.01521
N         24.04651       45.51093        8.15951
C         23.32483       44.58723        7.29578
C         24.06471       43.27527        7.09806
O         23.41557       42.23824        7.16183
C         23.13389       45.39842        6.00351
C         24.36540       46.26968        5.94657
C         24.53458       46.65949        7.41368
H         22.29780       44.37323        7.66624
H         22.90420       44.80537        5.09247
H         22.28413       46.10091        6.17289
H         25.21074       45.62983        5.62885
H         24.32042       47.12859        5.24376
H         25.60670       46.88244        7.60991
H         23.90676       47.53807        7.68165
N         25.40963       43.21913        6.88174
C         26.10350       41.95965        6.64659
C         25.72074       41.44044        5.26264
O         25.92392       42.18887        4.31581
C         27.64409       42.10515        6.69349
C         28.20779       42.50492        8.06768
C         27.99893       43.94611        8.42111
O         28.47474       44.82431        7.71953
O         27.31557       44.27885        9.53021
H         25.95449       44.08827        6.90484
H         25.84801       41.26927        7.46899
H         28.02418       42.79323        5.90776
H         28.05249       41.09133        6.48016
H         29.30388       42.32972        8.06238
H         27.75530       41.85585        8.83863
N         25.18857       40.20916        5.00051
C         24.91063       39.15402        5.95472
H         23.83229       38.89690        5.90772
H         25.49969       38.25491        5.67543
H         25.15871       39.39795        6.99778
H         24.97582       39.98454        4.01562
Ca        38.59893       38.59157       11.84894
O         40.10254       35.83233       12.60602
H         40.29963       35.30648       11.79040
H         40.42615       35.26698       13.35148
O         37.00902       36.57904       13.35104
H         36.12857       36.96697       13.58457
H         37.06037       35.73906       13.87223
O         41.73970       38.93432       12.70769
H         42.14495       38.09682       13.04668
H         42.33044       39.65227       13.04801
O         39.73114       38.73690       15.26446
H         40.35576       39.49967       15.17208
H         40.16367       38.14142       15.92698

Ca 1.0



