%chk=apoCaM-CA-Ng.loop3.water4.frame138.chk
%nprocshared=20
%mem=10GB
%nosave
#b3lyp/svp scf=(tight,noincore,xqc) Test 
#IOP(5/87=12) Density=Current Pop=(MK,readradii) iop(6/33=2) iop(6/42=6)

apoCaM-CA-Ng.loop3.water4.frame138 

   0  1 
C         50.51508       34.16196        1.58494
C         51.08961       32.77768        1.48473
O         50.91949       32.00013        2.41100
H         49.41403       34.09829        1.71247
H         50.95434       34.68859        2.45746
H         50.72638       34.75792        0.67121
N         51.79140       32.40225        0.37881
C         52.37007       31.07951        0.17139
C         53.41456       30.76422        1.23973
O         53.32316       29.76344        1.93721
C         51.25709       30.01591        0.02844
C         51.75252       28.67074       -0.44554
O         52.93409       28.47403       -0.68660
O         50.86837       27.67293       -0.63021
H         51.92861       33.09495       -0.37399
H         52.90185       31.10877       -0.80765
H         50.52716       30.37485       -0.72991
H         50.72378       29.88815        0.99139
N         54.47974       31.59766        1.36707
C         55.63899       31.36293        2.23547
C         55.37493       31.67760        3.70899
O         56.31102       31.62318        4.49517
C         56.78852       32.26405        1.73946
C         57.17847       31.92293        0.28305
C         58.18395       32.90832       -0.32109
C         57.58358       34.31708       -0.49626
N         58.52578       35.20835       -1.16646
H         54.49663       32.41288        0.73408
H         55.97937       30.30836        2.13634
H         57.69240       32.14124        2.37625
H         56.43924       33.31191        1.83199
H         56.29754       31.91135       -0.39149
H         57.61049       30.89852        0.27086
H         58.45911       32.52366       -1.32752
H         59.10135       32.94758        0.30378
H         57.32265       34.75975        0.48691
H         56.65303       34.24977       -1.10457
H         58.08541       36.15126       -1.26974
H         59.39706       35.29962       -0.59571
H         58.75712       34.83645       -2.11596
N         54.14196       32.03766        4.15325
C         53.84999       32.49410        5.50934
C         54.29004       31.49832        6.58539
O         54.19072       30.29620        6.38626
C         52.35186       32.81323        5.57970
C         51.93155       33.46994        6.84580
O         51.38975       34.56435        6.81218
O         52.00587       32.80375        8.00576
H         53.36491       32.03725        3.48153
H         54.39953       33.44871        5.67097
H         51.76002       31.88176        5.44410
H         52.09851       33.50474        4.74378
N         54.81267       31.96942        7.75712
C         55.39037       31.15435        8.81865
C         54.45893       30.11737        9.40591
O         54.82102       28.94923        9.39740
H         54.84538       32.99061        7.89569
H         55.71540       31.82719        9.64241
H         56.29756       30.64688        8.42544
N         53.24984       30.45791        9.93630
C         52.33061       29.47359       10.50859
C         51.20559       29.12887        9.54073
O         50.30090       28.39834        9.92205
C         51.82609       29.90105       11.90619
C         50.91243       31.09767       11.90539
N         49.62388       30.97306       12.29774
O         51.33878       32.19135       11.57299
H         52.94798       31.43769        9.87025
H         52.86279       28.51305       10.68347
H         52.68903       30.10530       12.57610
H         51.27589       29.03744       12.34021
H         49.23666       30.06448       12.59166
H         49.00746       31.79199       12.30603
N         51.26066       29.51888        8.23404
C         50.30588       29.09378        7.23238
C         48.97390       29.75973        7.40491
O         47.97795       29.06430        7.54595
H         52.05875       30.06887        7.89445
H         50.21585       27.98438        7.24642
H         50.68380       29.38487        6.22882
N         48.88065       31.11996        7.35308
C         47.61310       31.82921        7.38991
C         47.51932       32.67048        8.68324
O         48.26070       33.85061        8.56240
C         47.43596       32.70101        6.11809
C         47.30623       31.89291        4.84220
C         46.09403       31.91702        4.13031
C         48.37289       31.12448        4.33745
C         45.94336       31.17800        2.95432
C         48.21829       30.38330        3.16066
C         47.00081       30.40589        2.46675
O         46.83544       29.69406        1.33344
H         49.74403       31.67242        7.25311
H         46.77551       31.09986        7.42379
H         48.28036       33.41816        6.00949
H         46.51155       33.30247        6.25655
H         45.25823       32.50517        4.48760
H         49.32764       31.09617        4.84195
H         45.00025       31.20484        2.42340
H         49.04550       29.79266        2.78869
H         47.53910       29.14222        0.96333
N         46.12546       33.02066        8.96112
C         45.98192       33.80611       10.19846
C         46.13512       32.91404       11.42527
O         47.05160       33.13600       12.19701
C         44.64426       34.58644       10.16012
C         44.44306       35.33480        8.80818
C         44.54874       35.55887       11.34785
C         45.54567       36.33195        8.43191
H         45.52333       32.16615        8.99251
H         46.77696       34.58160       10.23769
H         43.80233       33.86492       10.23931
H         43.47083       35.87124        8.83303
H         44.37719       34.58803        7.98643
H         44.60464       35.00814       12.30910
H         45.37696       36.29829       11.32744
H         43.58176       36.10312       11.31800
H         46.52123       35.82051        8.31429
H         45.29979       36.79731        7.45400
H         45.63934       37.13763        9.18648
N         45.28212       31.87729       11.65836
C         45.41738       30.94745       12.78049
C         45.37436       31.64601       14.12993
O         46.17855       31.31372       14.98920
C         44.32756       29.86501       12.71482
O         43.05241       30.43879       12.80608
H         44.51000       31.72629       10.99205
H         46.39082       30.41263       12.69416
H         44.47600       29.14464       13.55084
H         44.42868       29.32222       11.74720
H         42.40821       29.69638       12.66994
N         44.48359       32.65011       14.36834
C         44.35604       33.36846       15.63379
C         45.68367       33.91613       16.15003
O         45.89439       33.92249       17.35765
C         43.65323       32.48543       16.67495
H         43.86844       32.95057       13.59770
H         43.68745       34.23883       15.45285
H         42.66984       32.15054       16.28225
H         44.26633       31.59141       16.91547
H         43.47060       33.05853       17.60980
N         46.64839       34.35212       15.29248
C         47.93247       34.87978       15.74116
C         48.27252       36.15896       15.01286
O         47.64756       36.45839       14.00251
C         49.03206       33.84645       15.48515
H         46.47968       34.27075       14.28078
H         47.90086       35.08972       16.83313
H         50.01566       34.22418       15.83725
H         48.80167       32.90897       16.03441
H         49.10382       33.61287       14.40132
N         49.26297       36.97467       15.47881
C         49.71530       38.17880       14.78895
C         48.52392       39.05076       14.42645
O         48.31508       39.34574       13.25712
C         50.57617       37.77807       13.56760
C         51.82640       36.99598       14.01215
C         52.61865       36.50781       12.83838
O         53.77109       36.87420       12.67311
O         52.07004       35.62627       11.98313
H         49.71959       36.73756       16.37386
H         50.37258       38.76234       15.47132
H         50.90731       38.68858       13.02059
H         49.96742       37.16119       12.87640
H         51.53911       36.10436       14.60820
H         52.45721       37.65589       14.64821
N         47.66483       39.45089       15.40427
C         46.44879       40.19428       15.14410
H         45.58058       39.60132       15.50314
H         46.47811       41.15843       15.69060
H         46.29875       40.39994       14.06325
H         47.86217       39.18880       16.38167
Ca        50.34157       33.46255        9.28477
O         52.27661       36.84707        9.26318
H         52.48559       37.56094        8.61063
H         53.08962       36.78207        9.82342
O         49.32124       35.09113       11.48248
H         48.45515       35.48348       11.75350
H         49.37452       34.23209       11.96892
O         53.66236       34.02180       10.18524
H         54.46093       34.48672        9.83094
H         53.99809       33.50355       10.95897
O         49.32907       36.68664        8.90163
H         48.72971       36.97905        8.17048
H         48.99830       37.16679        9.70179

Ca 1.0



