%chk=apoCaM-CA-Ng.loop1.water3.frame295.chk
%nprocshared=20
%mem=10GB
%nosave
#b3lyp/svp scf=(tight,noincore,xqc) Test 
#IOP(5/87=12) Density=Current Pop=(MK,readradii) iop(6/33=2) iop(6/42=6)

apoCaM-CA-Ng.loop1.water3.frame295 

   0  1 
C         68.38410       60.84567       42.71220
C         66.98107       61.35962       42.59498
O         66.42978       61.36512       41.50384
H         69.03970       61.64563       43.11728
H         68.40375       59.97641       43.40256
H         68.77457       60.52960       41.72201
N         66.34710       61.83066       43.70142
C         64.99288       62.36462       43.69600
C         65.01468       63.84893       44.03415
O         63.97366       64.37930       44.38128
C         64.12274       61.59165       44.71505
C         64.01677       60.12374       44.40339
O         65.11232       59.34107       44.42365
O         62.92805       59.62678       44.16105
H         66.85837       61.83292       44.59876
H         64.50753       62.25739       42.70448
H         63.09494       62.01775       44.69831
H         64.53420       61.71247       45.74091
N         66.14938       64.60042       43.91625
C         66.23551       65.99598       44.33446
C         66.46540       66.91288       43.13890
O         67.36471       66.61431       42.36524
C         67.37684       66.15305       45.35411
C         67.13144       65.28974       46.60101
C         68.18826       65.55828       47.67414
C         67.95112       64.67416       48.90464
N         68.92283       64.97242       49.95531
H         67.00652       64.17197       43.53635
H         65.32579       66.28968       44.86574
H         67.42871       67.21946       45.66202
H         68.35177       65.87752       44.89413
H         67.15021       64.21436       46.31727
H         66.13033       65.52867       47.02423
H         68.13136       66.62816       47.97366
H         69.20152       65.35353       47.26464
H         68.03910       63.60395       48.61148
H         66.92471       64.84641       49.29932
H         69.89537       64.81840       49.60300
H         68.81395       65.96428       50.26963
H         68.75127       64.33958       50.76959
N         65.76915       68.07713       42.90758
C         64.73363       68.67876       43.75397
C         65.25017       68.91663       45.17335
O         64.76348       68.28539       46.10187
C         63.39448       67.90215       43.70855
C         62.69771       67.93874       42.37784
O         63.17273       68.54046       41.43129
O         61.50019       67.33971       42.24431
H         66.04559       68.62695       42.07853
H         64.47331       69.68051       43.35106
H         62.70726       68.39697       44.41745
H         63.50379       66.85094       44.00775
N         66.21498       69.84012       45.45331
C         66.72723       70.76986       44.45768
C         67.70472       71.79049       45.02383
O         68.12228       71.66176       46.16542
H         66.51989       69.92513       46.43462
H         65.85276       71.34013       44.07762
H         67.21387       70.22538       43.62155
N         68.08711       72.89120       44.30892
C         67.56858       73.21419       42.98204
C         66.37681       74.14792       43.09303
O         66.07925       74.62954       44.17882
C         68.68640       73.74469       42.05505
C         69.30988       75.05760       42.46918
O         68.88839       75.73208       43.55685
O         70.21191       75.52652       41.79389
H         68.67868       73.58579       44.78964
H         67.18541       72.29241       42.49998
H         68.27705       73.87535       41.03031
H         69.48775       72.97588       42.00453
N         65.60350       74.39477       42.00080
C         64.40403       75.21192       42.04316
C         63.36935       74.63268       42.98258
O         62.93831       75.32825       43.89166
H         65.85925       73.96462       41.09888
H         63.95980       75.25201       41.02506
H         64.66773       76.24944       42.34433
N         62.91287       73.35857       42.80772
C         61.87700       72.75459       43.65232
C         62.34147       72.64954       45.10455
O         63.49968       72.91874       45.39484
C         61.46165       71.36279       43.08790
C         60.87105       71.47181       41.67745
O         60.49285       70.75918       43.90532
H         63.31003       72.81470       42.02728
H         60.98497       73.42001       43.63157
H         62.37663       70.73055       43.05954
H         60.62011       69.77715       43.84081
H         60.59213       70.46093       41.31264
H         59.95851       72.10564       41.69471
H         61.59172       71.90540       40.95855
N         61.45654       72.28560       46.07820
C         61.77258       72.23991       47.49852
C         61.71789       70.79998       47.98955
O         62.67567       70.36810       48.61659
C         60.78486       73.14105       48.30079
C         60.59047       74.55266       47.68142
C         61.21535       73.24823       49.77757
C         61.85656       75.40333       47.56015
H         60.48529       72.07556       45.81414
H         62.79993       72.62933       47.68098
H         59.77931       72.66453       48.27648
H         59.84875       75.11223       48.29284
H         60.15276       74.44418       46.66588
H         61.25520       72.24639       50.25303
H         62.22113       73.71031       49.86886
H         60.48918       73.86538       50.34820
H         61.59209       76.37798       47.09723
H         62.30492       75.60450       48.55311
H         62.60532       74.91148       46.90951
N         60.64690       69.98907       47.71627
C         60.54462       68.61164       48.20350
C         60.81908       67.60049       47.10160
O         60.90337       67.96785       45.94060
C         59.17977       68.35821       48.88922
C         57.99455       68.44046       47.90976
O         59.00605       69.28904       49.92565
H         59.89634       70.35121       47.11426
H         61.34136       68.44244       48.96134
H         59.20363       67.32961       49.31793
H         58.27404       68.94520       50.50192
H         58.11154       67.70112       47.08909
H         57.04926       68.20863       48.44311
H         57.89525       69.45315       47.46967
N         61.07018       66.30273       47.43604
C         61.57340       65.31068       46.48993
C         60.51115       64.79710       45.52789
O         59.44794       64.38767       45.97097
C         62.27095       64.13422       47.22815
C         61.34163       63.21412       48.02847
O         63.26053       64.65909       48.07810
H         61.05068       66.05928       48.43759
H         62.40104       65.78258       45.91673
H         62.75442       63.50728       46.44867
H         63.96323       63.96469       48.17720
H         61.94639       62.41504       48.50788
H         60.79780       63.77111       48.81681
H         60.61528       62.70911       47.35973
N         60.78525       64.71455       44.19259
C         59.91783       64.07040       43.20374
C         60.53800       64.24475       41.81870
O         59.90326       64.83031       40.95339
C         59.71858       62.56031       43.53909
C         58.72676       61.84949       42.59673
C         58.51578       60.38140       43.02098
C         57.57931       59.59179       42.08515
N         56.20553       60.09943       42.09406
H         61.68218       65.10090       43.86872
H         58.92350       64.56993       43.22234
H         59.30903       62.45774       44.56366
H         60.69667       62.03203       43.51956
H         59.11588       61.87605       41.55656
H         57.75703       62.38835       42.63538
H         58.11358       60.33787       44.05751
H         59.50242       59.86880       43.01340
H         57.56364       58.53200       42.42637
H         57.98075       59.60757       41.04820
H         55.61683       59.49046       41.48011
H         55.81573       60.06998       43.06420
H         56.16455       61.07300       41.71948
N         61.79879       63.78313       41.56215
C         62.49907       63.94306       40.29062
C         62.79592       62.57365       39.71431
O         63.48179       61.78425       40.34934
C         63.79875       64.76909       40.50629
C         64.76440       64.77932       39.30003
C         64.14014       65.26565       38.02077
O         63.95641       64.47991       37.10516
O         63.83278       66.56289       37.83614
H         62.30258       63.29569       42.31838
H         61.87396       64.50183       39.56072
H         64.36990       64.33912       41.35505
H         63.51926       65.80631       40.78207
H         65.11894       63.73713       39.14790
H         65.66198       65.39318       39.53090
N         62.32179       62.23639       38.48352
C         62.61215       60.96243       37.86587
H         62.13620       60.91381       36.86312
H         63.70998       60.84494       37.74104
H         62.21561       60.13652       38.49225
H         61.74795       62.91070       37.95468
Ca        64.60468       68.21958       39.15159
O         60.64061       68.68495       39.03303
H         59.66213       68.67459       39.18395
H         60.98704       67.95068       39.59916
O         61.82047       68.15516       36.13872
H         62.72470       68.06115       35.74600
H         61.58187       67.24118       36.43641
O         62.30392       71.35709       38.36657
H         62.79701       72.12627       37.98514
H         61.35450       71.63849       38.35011

Ca 1.0



