%chk=apoCaM-CA-Ng.loop3.water6.frame2.chk
%nprocshared=20
%mem=10GB
%nosave
#b3lyp/svp scf=(tight,noincore,xqc) Test 
#IOP(5/87=12) Density=Current Pop=(MK,readradii) iop(6/33=2) iop(6/42=6)

apoCaM-CA-Ng.loop3.water6.frame2 

   0  1 
C         60.10974       43.93317      104.11484
C         61.15497       45.00108      104.24417
O         61.94545       44.95243      105.17068
H         59.11072       44.40212      103.99347
H         60.32935       43.30442      103.22734
H         60.08851       43.28513      105.01650
N         61.20953       46.00818      103.32989
C         62.17361       47.10730      103.35125
C         62.02856       48.00531      104.58584
O         63.00987       48.63681      104.96105
C         63.62528       46.58441      103.19677
C         63.76321       45.57975      102.08611
O         63.47598       45.87731      100.93801
O         64.20115       44.33567      102.36265
H         60.52638       45.99818      102.55763
H         61.96725       47.74421      102.46252
H         63.95921       46.10374      104.14043
H         64.30603       47.44172      102.99572
N         60.85071       48.11376      105.27822
C         60.70817       48.91663      106.49835
C         60.43901       48.00551      107.69300
O         59.72663       48.37357      108.61336
C         59.57466       49.95462      106.32897
C         59.72972       50.86211      105.09696
C         60.91730       51.83051      105.20819
C         61.03573       52.75567      103.98404
N         61.56824       52.05743      102.81157
H         60.02732       47.58066      104.95572
H         61.65175       49.45162      106.73129
H         59.49809       50.58545      107.24322
H         58.61589       49.40239      106.21619
H         58.80418       51.47465      105.01765
H         59.79758       50.23362      104.18605
H         61.87883       51.29411      105.34959
H         60.73856       52.46435      106.10340
H         61.73636       53.57996      104.23890
H         60.04756       53.21264      103.74983
H         60.94211       51.27779      102.51211
H         61.65702       52.73900      102.02329
H         62.52089       51.68260      103.02892
N         60.98534       46.75962      107.70178
C         60.74703       45.76304      108.72461
C         61.62089       46.00089      109.94429
O         62.81399       46.21151      109.79249
C         60.99944       44.36785      108.11909
C         60.57824       43.33907      109.09420
O         61.32689       42.43411      109.42838
O         59.34222       43.50254      109.61299
H         61.53926       46.47397      106.89395
H         59.66604       45.78766      108.99853
H         62.05065       44.23236      107.78405
H         60.32083       44.24673      107.24826
N         61.07828       45.96208      111.19548
C         61.81839       46.23479      112.41919
C         62.84107       45.19486      112.84816
O         63.42596       45.41101      113.90120
H         60.06814       45.78224      111.29000
H         61.08723       46.29729      113.25358
H         62.31189       47.22668      112.32856
N         63.13956       44.07164      112.12836
C         64.14649       43.10584      112.57088
C         65.43847       43.24885      111.79314
O         66.37309       42.52720      112.09694
C         63.64312       41.66031      112.41122
C         62.39591       41.40639      113.19476
N         61.19034       41.65158      112.65152
O         62.46901       40.97749      114.33525
H         62.68822       43.91426      111.21775
H         64.39844       43.26709      113.64438
H         64.42439       40.97234      112.78817
H         63.47950       41.40965      111.33838
H         61.09966       41.99322      111.69042
H         60.34803       41.49868      113.20963
N         65.58332       44.15290      110.78393
C         66.80227       44.25811      110.00517
C         67.02468       43.00276      109.18924
O         66.16605       42.69466      108.38042
H         64.81558       44.79225      110.54601
H         67.65689       44.48028      110.67943
H         66.69799       45.10706      109.29524
N         68.17269       42.26649      109.32275
C         68.52880       41.05509      108.56582
C         67.77774       39.80523      108.99103
O         68.45478       38.84839      109.34203
C         68.55155       41.26637      107.04357
C         69.72464       42.15649      106.72860
C         69.61307       43.55345      106.76965
C         70.98196       41.56908      106.50270
C         70.74846       44.35127      106.59052
C         72.11320       42.36534      106.33421
C         72.00223       43.76095      106.38549
O         73.09421       44.54037      106.25784
H         68.88115       42.61757      109.98519
H         69.58445       40.81260      108.84199
H         67.59414       41.62505      106.61272
H         68.74705       40.27268      106.58152
H         68.65551       44.02151      106.95923
H         71.09195       40.49081      106.49217
H         70.65775       45.42858      106.63495
H         73.07647       41.89393      106.18422
H         73.98192       44.16524      106.16444
N         66.41809       39.71377      108.98671
C         65.63455       38.64494      109.60434
C         65.66479       38.75849      111.13561
O         64.59551       38.72946      111.72490
C         65.93080       37.19909      109.08970
C         66.09599       37.10537      107.54989
C         64.80983       36.23926      109.56052
C         64.88285       37.54462      106.72882
H         65.87129       40.46832      108.56880
H         64.57697       38.83965      109.31131
H         66.89088       36.83948      109.51889
H         66.32972       36.05002      107.28335
H         66.96824       37.71720      107.23899
H         63.81154       36.59964      109.22706
H         64.95717       35.21744      109.15131
H         64.78137       36.16396      110.66628
H         65.11639       37.42498      105.64943
H         63.99649       36.91774      106.95453
H         64.64558       38.61094      106.91729
N         66.82651       38.92021      111.84969
C         66.89468       38.99939      113.30228
C         66.58806       37.64717      113.91830
O         66.38636       37.58582      115.12382
C         68.31154       39.44385      113.76471
O         68.71345       40.70119      113.27076
H         67.71831       38.99730      111.37843
H         66.16356       39.76084      113.64834
H         69.05716       38.68332      113.44527
H         68.32449       39.51111      114.87248
H         68.14915       40.95924      112.50166
N         66.53276       36.51532      113.14491
C         66.17352       35.19491      113.62884
C         64.78181       35.19702      114.25572
O         64.51247       34.35285      115.09472
C         67.26688       34.64160      114.56001
H         66.73865       36.57226      112.13930
H         66.14499       34.50241      112.75920
H         67.36711       35.23627      115.49023
H         67.04040       33.58784      114.83023
H         68.24499       34.64584      114.02921
N         63.86802       36.16889      113.92937
C         62.58480       36.31922      114.60362
C         61.42418       36.49378      113.63146
O         61.62621       36.58584      112.43068
C         62.67374       37.53919      115.51573
H         64.11685       36.88432      113.23984
H         62.38195       35.42669      115.23359
H         63.52582       37.41533      116.21768
H         62.84404       38.45271      114.90937
H         61.74585       37.65987      116.11080
N         60.14965       36.49525      114.13057
C         58.91791       36.53500      113.34496
C         58.96176       35.52577      112.21081
O         58.57634       35.84807      111.09379
C         58.55764       37.94376      112.83790
C         58.42334       38.97572      113.96731
C         57.79858       40.21145      113.41506
O         56.80055       40.71492      113.90655
O         58.37808       40.73613      112.33775
H         60.03488       36.34706      115.14357
H         58.09263       36.23872      114.03036
H         57.57294       37.86740      112.32315
H         59.30709       38.29955      112.09072
H         59.44110       39.22393      114.34420
H         57.80109       38.59877      114.80203
N         59.48028       34.28631      112.42486
C         59.64933       33.30836      111.37195
H         60.72945       33.06943      111.27286
H         59.09173       32.38778      111.63300
H         59.29145       33.67775      110.38756
H         59.81983       34.03562      113.36557
Ca        58.10139       42.56448      111.18458
O         56.41299       43.41830      108.45732
H         56.78176       44.09147      107.83137
H         55.45207       43.36276      108.22573
O         55.06567       43.91751      111.99103
H         54.54331       43.37846      112.63673
H         54.78387       44.85114      112.16119
O         58.19048       40.52414      109.42479
H         59.13788       40.31233      109.62185
H         57.80056       39.68300      109.08457
O         55.07094       41.06818      111.06342
H         54.17993       40.72148      110.80837
H         55.37876       40.44901      111.77031
O         57.19207       45.60448      110.50990
H         57.45273       46.50087      110.83843
H         56.48318       45.78148      109.84217
O         58.43803       44.62658      113.18948
H         57.57444       44.59361      113.67215
H         58.94628       43.84907      113.53276

Ca 1.0



