%chk=apoCaM-CA-Ng.loop4.water6.frame842.chk
%nprocshared=20
%mem=10GB
%nosave
#b3lyp/svp scf=(tight,noincore,xqc) Test 
#IOP(5/87=12) Density=Current Pop=(MK,readradii) iop(6/33=2) iop(6/42=6)

apoCaM-CA-Ng.loop4.water6.frame842 

   -3  1 
C         70.30445      -23.17512       60.76495
C         70.65976      -24.19221       59.72106
O         71.67016      -24.86651       59.85654
H         69.31337      -23.42664       61.20016
H         71.05789      -23.16116       61.58034
H         70.25104      -22.16659       60.30657
N         69.83541      -24.37069       58.65214
C         70.03003      -25.36625       57.60411
C         70.06797      -26.76243       58.19761
O         70.96750      -27.53262       57.88270
C         71.28544      -25.07204       56.74686
C         71.23337      -23.72193       56.09545
O         70.32865      -23.44328       55.32501
O         72.20637      -22.82260       56.33408
H         68.98380      -23.79059       58.59372
H         69.14144      -25.32515       56.93500
H         71.36747      -25.83534       55.94231
H         72.20052      -25.13886       57.37391
N         69.12483      -27.15182       59.10243
C         69.14337      -28.48986       59.68290
C         68.76508      -29.52232       58.62054
O         68.02738      -29.16562       57.71186
C         68.22741      -28.62841       60.94122
C         66.73369      -28.32168       60.63683
C         68.77325      -27.75220       62.08547
C         65.79309      -28.64569       61.79947
H         68.42250      -26.46358       59.40631
H         70.18653      -28.65142       60.01957
H         68.29930      -29.68442       61.28214
H         66.39839      -28.94156       59.77987
H         66.59693      -27.25436       60.36567
H         69.82958      -28.02304       62.29886
H         68.72897      -26.67447       61.82353
H         68.21013      -27.91636       63.02571
H         65.87156      -29.72065       62.06721
H         66.01131      -28.02511       62.69119
H         64.74644      -28.43416       61.49352
N         69.17498      -30.82580       58.64207
C         70.10075      -31.41615       59.59864
C         71.28028      -31.98090       58.82310
O         71.06282      -32.80283       57.94236
C         69.38511      -32.51594       60.40649
C         70.18269      -32.98123       61.59682
O         69.69890      -33.96131       62.38182
O         71.23461      -32.44109       61.89556
H         68.81494      -31.44716       57.89959
H         70.45339      -30.66824       60.32720
H         69.14844      -33.37516       59.74275
H         68.43140      -32.11419       60.80869
N         72.55547      -31.57901       59.08336
C         73.70184      -32.02848       58.30712
C         74.68059      -32.85515       59.10762
O         75.71892      -33.18399       58.55080
H         72.72842      -30.91120       59.85018
H         74.22230      -31.12701       57.91756
H         73.39837      -32.63963       57.42987
N         74.42652      -33.26758       60.38741
C         75.39703      -34.05664       61.14821
C         74.88480      -34.69994       62.44554
O         75.63158      -35.51403       62.96568
C         76.66651      -33.21031       61.44273
C         76.35863      -31.93646       62.19198
O         76.92863      -31.69250       63.38488
O         75.62332      -31.09449       61.70122
H         73.52111      -33.02862       60.79550
H         75.68030      -34.92621       60.51271
H         77.16608      -32.92322       60.49602
H         77.39956      -33.81982       62.01466
N         73.67004      -34.45972       63.02960
C         73.25164      -35.13933       64.25205
C         74.10519      -34.78465       65.45922
O         74.03551      -35.49259       66.45330
H         73.00370      -33.80935       62.61796
H         73.30703      -36.23403       64.06787
H         72.19403      -34.89379       64.49310
N         74.91583      -33.68834       65.45316
C         75.83911      -33.31181       66.51694
C         75.20113      -32.95321       67.85230
O         75.96046      -32.67003       68.76816
C         77.01463      -34.30998       66.66457
C         77.72733      -34.50084       65.31136
C         79.17583      -34.89926       65.38253
N         79.88210      -35.01183       64.23276
O         79.73212      -35.07115       66.45675
H         74.90898      -33.07187       64.62838
H         76.32794      -32.36294       66.19681
H         76.71350      -35.29308       67.08857
H         77.72658      -33.83245       67.37187
H         77.73548      -33.53817       64.76944
H         77.16786      -35.24442       64.71874
H         79.42696      -34.85190       63.32072
H         80.88707      -35.23682       64.24991
N         73.85028      -32.80539       68.01882
C         73.29405      -32.22050       69.24401
C         72.93351      -30.76192       69.02213
O         72.68403      -30.07765       70.00899
C         72.10408      -33.02724       69.82244
C         70.86994      -33.00191       68.90605
C         72.51524      -34.47123       70.12933
H         73.22079      -32.97003       67.22326
H         74.08045      -32.19954       70.03020
H         71.80959      -32.55111       70.78563
H         71.08024      -33.48165       67.92876
H         70.02845      -33.54086       69.39067
H         70.53759      -31.95652       68.72941
H         73.37544      -34.48306       70.83217
H         71.67131      -35.01375       70.60641
H         72.80219      -35.00586       69.19922
N         72.90955      -30.20306       67.77562
C         72.71506      -28.78396       67.53840
C         73.91391      -28.23891       66.77959
O         74.70613      -29.00833       66.24316
C         71.39982      -28.56413       66.76458
C         71.06500      -27.10547       66.57084
N         70.96324      -26.57606       65.32944
O         70.88026      -26.39442       67.54815
H         73.06102      -30.78977       66.94188
H         72.65056      -28.24861       68.51253
H         70.56462      -29.02863       67.33267
H         71.47214      -29.08027       65.78236
H         71.11635      -27.15639       64.49214
H         70.73520      -25.57866       65.20390
N         74.15141      -26.90679       66.76334
C         75.31477      -26.31262       66.12032
C         75.47609      -24.89777       66.61349
O         74.47698      -24.19954       66.71312
C         75.18505      -26.30109       64.57977
C         76.50948      -25.89226       63.97296
C         76.68824      -24.63037       63.38050
C         77.59679      -26.78138       64.03328
C         77.94213      -24.26197       62.87579
C         78.84143      -26.41727       63.51706
C         79.02279      -25.15582       62.94417
O         80.23802      -24.81466       62.46960
H         73.51528      -26.30848       67.31378
H         76.21495      -26.89514       66.42071
H         74.37120      -25.59533       64.29786
H         74.91233      -27.29893       64.17480
H         75.86956      -23.92337       63.33205
H         77.47808      -27.76017       64.48186
H         78.07565      -23.28052       62.43850
H         79.66792      -27.11508       63.57133
H         80.41571      -23.94710       62.07995
N         76.70232      -24.39074       66.90766
C         76.88309      -23.04980       67.43500
C         77.50507      -22.17094       66.36446
O         78.70996      -22.26336       66.17128
C         77.75458      -23.13824       68.70541
C         77.97491      -21.78526       69.39208
C         78.88544      -21.94331       70.57702
O         80.02922      -22.34394       70.42397
O         78.44901      -21.63621       71.81283
H         77.53969      -24.96893       66.72995
H         75.91067      -22.62971       67.73720
H         78.74041      -23.57641       68.42879
H         77.26752      -23.82937       69.42907
H         76.99386      -21.37911       69.72036
H         78.44182      -21.06284       68.68984
N         76.78240      -21.33157       65.56024
C         75.32298      -21.20404       65.52546
C         74.75413      -20.59416       66.79441
O         75.18972      -19.52566       67.19985
C         74.90289      -20.36413       64.30213
C         73.37513      -20.31583       64.12510
C         73.01425      -19.62217       62.84816
O         73.39296      -20.07886       61.78225
O         72.26138      -18.50600       62.86750
H         77.31895      -20.80320       64.85325
H         74.89049      -22.20929       65.34819
H         75.34278      -20.84705       63.40051
H         75.30758      -19.33065       64.37916
H         72.90941      -19.78268       64.98185
H         72.96383      -21.34817       64.08556
N         73.72981      -21.21441       67.44621
C         73.12546      -20.68086       68.64512
H         72.30071      -21.34869       68.97778
H         73.88111      -20.61957       69.45544
H         72.70287      -19.67448       68.44227
H         73.34124      -22.08914       67.06810
Ca        71.62007      -19.31177       59.68635
O         72.12555      -18.19274       56.94838
H         71.40274      -18.66101       56.45993
H         72.84159      -18.06843       56.27637
O         73.45923      -21.91165       59.14770
H         73.92680      -21.36455       58.46774
H         72.50845      -21.88523       58.87381
O         72.69712      -16.32067       59.68474
H         73.57379      -16.01762       59.33834
H         72.11440      -15.52290       59.61926
O         74.80623      -18.79660       59.48686
H         75.39870      -18.18234       58.98560
H         75.41647      -19.47885       59.86469
O         69.81668      -20.90624       57.92392
H         69.02119      -20.46571       57.53392
H         70.44076      -21.00924       57.16330
O         69.47538      -17.34287       59.54002
H         69.36765      -17.12409       58.58042
H         68.63387      -17.04057       59.96412

Ca 1.0



