%chk=apoCaM-CA-Ng.loop2.water3.frame455.chk
%nprocshared=20
%mem=10GB
%nosave
#b3lyp/svp scf=(tight,noincore,xqc) Test 
#IOP(5/87=12) Density=Current Pop=(MK,readradii) iop(6/33=2) iop(6/42=6)

apoCaM-CA-Ng.loop2.water3.frame455 

   -2  1 
C         61.82765       82.89542       70.08457
C         62.09816       84.02837       69.13814
O         62.72961       83.79695       68.11711
H         61.25324       83.23341       70.97119
H         61.24243       82.10854       69.56393
H         62.78994       82.46303       70.43080
N         61.64794       85.28667       69.41251
C         61.87986       86.43336       68.53892
C         62.68960       87.48980       69.27964
O         62.87359       87.36576       70.48343
C         60.50714       86.96872       68.07723
C         60.59106       88.07877       67.07015
O         61.11897       87.88728       65.98615
O         60.06591       89.28644       67.35185
H         61.11359       85.44304       70.28086
H         62.46769       86.11635       67.64991
H         59.93839       87.31745       68.96772
H         59.93506       86.13757       67.61034
N         63.23823       88.54901       68.61273
C         64.03023       89.58380       69.27767
C         65.27122       89.00247       69.94251
O         65.52246       87.81113       69.81477
C         64.42094       90.67391       68.27064
H         63.09170       88.62069       67.59569
H         63.39673       90.05144       70.06376
H         63.50533       91.10491       67.81141
H         64.97037       91.50027       68.76719
H         65.05912       90.24953       67.46636
N         66.08053       89.79237       70.70774
C         67.20166       89.26417       71.47877
C         68.50748       89.81736       70.94392
O         69.27575       90.41774       71.68460
C         66.98461       89.58889       72.97691
C         65.72055       88.98840       73.54040
O         64.91931       88.21815       72.77869
O         65.41607       89.20563       74.70195
H         65.87257       90.79958       70.78684
H         67.27435       88.15940       71.37569
H         66.93207       90.69343       73.10218
H         67.84188       89.20621       73.57174
N         68.82596       89.63104       69.63179
C         70.06809       90.10169       69.04577
C         71.28222       89.28161       69.44402
O         72.36912       89.65235       69.02425
H         68.14257       89.17177       69.01094
H         70.21169       91.17298       69.30829
H         69.99405       90.03414       67.93915
N         71.19062       88.14746       70.20437
C         72.34355       87.32908       70.56650
C         72.17542       85.92436       70.00741
O         71.16750       85.28585       70.27903
C         72.49166       87.29241       72.09879
C         73.73395       86.54452       72.52511
N         74.96489       86.98322       72.16639
O         73.62699       85.53720       73.20809
H         70.26966       87.83031       70.53914
H         73.27516       87.77299       70.15595
H         71.58884       86.81926       72.54528
H         72.56427       88.33035       72.48961
H         75.08074       87.83808       71.60287
H         75.81017       86.47133       72.45948
N         73.15045       85.37523       69.22800
C         73.08454       84.03937       68.64946
C         73.02557       82.93017       69.68094
O         72.93958       83.19802       70.87197
H         73.99289       85.93396       69.02239
H         74.00611       83.88214       68.04678
H         72.20988       83.96234       67.96945
N         73.10984       81.62995       69.27263
C         73.11845       80.51274       70.21568
C         71.71833       80.16155       70.72134
O         71.63035       79.38629       71.66220
C         73.85994       79.27019       69.64074
C         73.17901       78.61014       68.43169
O         75.19483       79.59422       69.33582
H         73.25568       81.45120       68.26843
H         73.72504       80.82604       71.09578
H         73.89371       78.49615       70.43869
H         75.20019       80.14623       68.51116
H         73.77186       77.73005       68.10397
H         72.17742       78.24692       68.71524
H         73.08954       79.30611       67.57279
N         70.58614       80.67411       70.14725
C         69.22745       80.38469       70.61040
C         68.55261       81.68833       70.99914
O         68.62010       82.65311       70.25021
C         68.39752       79.64549       69.51726
C         69.04715       78.31248       69.06545
C         66.94880       79.38854       69.98685
C         69.22063       77.25148       70.16229
H         70.67590       81.29706       69.33168
H         69.24134       79.72403       71.50314
H         68.34195       80.29736       68.61724
H         70.03332       78.53708       68.62553
H         68.42823       77.86862       68.25569
H         66.92610       78.78174       70.91626
H         66.42125       80.34235       70.19039
H         66.37470       78.85906       69.19739
H         68.24358       76.94763       70.58967
H         69.69401       76.34715       69.72574
H         69.87720       77.60958       70.97812
N         67.81736       81.74967       72.14311
C         67.12409       82.94217       72.61302
C         67.53999       83.24925       74.05739
O         66.90696       84.06926       74.70649
C         65.60834       82.68349       72.47314
C         64.78759       83.92931       72.66826
O         63.83276       83.97094       73.61147
O         64.95919       84.89836       71.94526
H         67.70556       80.88834       72.70160
H         67.36409       83.81902       71.97196
H         65.28893       81.88155       73.17471
H         65.40200       82.33593       71.43691
N         68.62509       82.63460       74.61486
C         69.05287       82.79762       75.99807
C         68.07529       82.10336       76.94019
O         67.85464       80.91402       76.74789
C         70.42981       82.10116       76.18043
C         70.90329       82.13486       77.61461
C         71.29044       83.34222       78.21690
C         70.93563       80.94831       78.36908
C         71.69573       83.36161       79.55569
C         71.33363       80.97329       79.70726
C         71.71326       82.17897       80.30092
H         69.20329       82.02004       74.02433
H         69.18342       83.87583       76.22996
H         71.19883       82.56016       75.52160
H         70.32042       81.04049       75.85879
H         71.27382       84.26588       77.65210
H         70.63378       80.00606       77.92816
H         71.99105       84.29433       80.01764
H         71.34225       80.05754       80.28425
H         72.01953       82.19588       81.33858
N         67.54972       82.70800       78.05038
C         66.90743       81.94890       79.11042
C         65.45859       81.60205       78.83433
O         64.90892       80.82945       79.60754
C         67.07008       82.85547       80.33228
C         66.92286       84.23149       79.71020
C         67.76214       84.08724       78.44057
H         67.45959       81.00032       79.30222
H         66.40099       82.62650       81.18907
H         68.12532       82.77646       80.68505
H         65.85455       84.35278       79.42072
H         67.21640       85.08455       80.35786
H         67.42533       84.81540       77.67210
H         68.83701       84.23299       78.66515
N         64.76043       82.12258       77.78408
C         63.37983       81.72626       77.52248
C         63.31293       80.37431       76.82145
O         62.21039       79.88413       76.61631
C         62.64217       82.79082       76.69036
C         62.54287       84.12975       77.43892
C         61.74753       85.12795       76.65181
O         62.12943       85.48664       75.55171
O         60.60889       85.63751       77.15914
H         65.20378       82.82688       77.17558
H         62.83260       81.64973       78.48946
H         61.60620       82.43701       76.48988
H         63.15953       82.92356       75.72063
H         63.55424       84.54574       77.63290
H         62.03749       83.96425       78.41530
N         64.43333       79.70947       76.41435
C         64.36678       78.42942       75.74512
H         65.39207       78.07568       75.50354
H         63.87894       77.68136       76.40511
H         63.79266       78.52548       74.79932
H         65.36786       80.11030       76.56680
Ca        62.98926       87.34925       73.55063
O         65.07965       86.24236       75.81450
H         65.83619       86.77855       76.16055
H         65.23507       86.19748       74.83790
O         60.64896       89.22639       74.23352
H         60.09231       88.98795       73.45009
H         61.42548       89.70582       73.84882
O         60.54792       85.21010       73.00965
H         60.82684       84.29617       73.26955
H         59.76520       85.07262       72.41930

Ca 1.0



