%chk=apoCaM-CA-Ng.loop4.water6.frame1015.chk
%nprocshared=20
%mem=10GB
%nosave
#b3lyp/svp scf=(tight,noincore,xqc) Test 
#IOP(5/87=12) Density=Current Pop=(MK,readradii) iop(6/33=2) iop(6/42=6)

apoCaM-CA-Ng.loop4.water6.frame1015 

   -3  1 
C         31.98426       39.61874       32.77269
C         32.48154       39.14393       31.43392
O         33.51811       38.50219       31.39199
H         30.98442       39.20324       32.99834
H         32.67843       39.30185       33.57921
H         31.93437       40.72820       32.77620
N         31.83371       39.42744       30.27039
C         30.54930       40.11466       30.20664
C         29.47798       39.18465       30.74063
O         28.78818       39.54457       31.68375
C         30.22890       40.54093       28.76431
C         31.32053       41.41901       28.21526
O         31.64723       42.55862       28.85224
O         31.93883       41.08412       27.21707
H         32.27882       39.12531       29.38835
H         30.59309       41.05290       30.80410
H         29.26815       41.09960       28.74303
H         30.12527       39.64665       28.13299
N         29.33432       37.93614       30.20481
C         28.42142       36.92326       30.72501
C         27.35522       36.53074       29.70778
O         26.57409       35.63712       30.00532
C         29.23640       35.71142       31.29273
C         30.15193       34.94396       30.29835
C         30.11344       36.20123       32.45993
C         29.41484       34.19118       29.19748
H         29.93767       37.66908       29.41312
H         27.84449       37.32660       31.58638
H         28.51388       34.98389       31.72506
H         30.70326       34.16893       30.87604
H         30.90902       35.61893       29.84579
H         30.62576       35.34699       32.95102
H         30.89127       36.90328       32.09685
H         29.49598       36.71431       33.22737
H         30.14391       33.58401       28.62105
H         28.66129       33.50313       29.63737
H         28.93518       34.89143       28.49279
N         27.20636       37.19899       28.52378
C         26.14517       36.88395       27.55942
C         25.99018       38.02998       26.54841
O         26.85275       38.89694       26.48141
C         26.51242       35.54487       26.85254
C         25.45834       34.84476       26.03186
O         25.77094       33.84773       25.40077
O         24.16772       35.21565       26.05512
H         27.82807       37.99739       28.34544
H         25.19288       36.80811       28.12906
H         26.81024       34.79177       27.60843
H         27.39977       35.74073       26.21071
N         24.90028       38.12353       25.73331
C         24.76149       39.16503       24.72985
C         25.84662       39.06717       23.68309
O         26.68647       38.17907       23.75618
H         24.12507       37.46260       25.82490
H         24.80805       40.16109       25.22264
H         23.77411       39.06953       24.22866
N         25.88853       39.96395       22.66115
C         26.98041       39.96997       21.68609
C         26.66438       40.85855       20.47814
O         25.71927       41.63251       20.54237
C         28.28245       40.42264       22.41731
C         28.14955       41.79059       23.03651
O         27.96192       42.77319       22.33687
O         28.25663       41.93784       24.37114
H         25.12731       40.65698       22.60158
H         27.08252       38.93676       21.29378
H         29.16550       40.43962       21.76513
H         28.52244       39.70147       23.22482
N         27.38811       40.83133       19.31783
C         28.47839       39.91671       19.00611
C         28.01216       38.49831       18.74119
O         26.80924       38.28628       18.67653
H         27.13536       41.51159       18.58336
H         29.25784       39.95810       19.77452
H         28.92622       40.26321       18.05388
N         28.87052       37.45045       18.51827
C         30.33063       37.43109       18.68144
C         30.70318       37.52415       20.15220
O         29.81771       37.61396       20.99381
C         31.08279       38.48299       17.81812
C         30.72388       38.45279       16.32318
C         31.17931       37.21305       15.58787
N         30.93700       37.09859       14.26262
O         31.78258       36.32119       16.16634
H         28.44273       36.54660       18.26056
H         30.68402       36.42780       18.36374
H         32.18048       38.34750       17.90376
H         30.90085       39.49681       18.20780
H         31.22422       39.31914       15.83907
H         29.62748       38.58063       16.20149
H         30.43965       37.84421       13.75399
H         31.25179       36.26623       13.74266
N         32.01000       37.49501       20.54321
C         32.39098       37.58231       21.94793
C         32.08434       36.28514       22.68107
O         31.76286       35.27992       22.06260
C         33.88869       37.97524       22.13548
C         34.18247       39.34442       21.50542
C         34.86591       36.91707       21.59883
H         32.74223       37.45595       19.82351
H         31.79091       38.39975       22.41002
H         34.08770       38.08040       23.22440
H         34.03236       39.32645       20.40601
H         33.51526       40.11664       21.94461
H         35.23283       39.64190       21.71129
H         34.70144       35.94520       22.10862
H         34.76161       36.76937       20.50530
H         35.90931       37.23538       21.80462
N         32.17692       36.26607       24.03417
C         31.96667       35.09152       24.87628
C         33.17944       34.81219       25.76509
O         33.13761       33.85109       26.52186
C         30.68148       35.31500       25.69692
C         30.67185       36.66214       26.37734
N         29.81520       37.62004       25.94902
O         31.47010       36.90881       27.26934
H         32.38283       37.16168       24.50286
H         31.81093       34.17956       24.25917
H         30.51194       34.49653       26.42579
H         29.83749       35.28610       24.97463
H         29.15800       37.43906       25.17718
H         29.82604       38.56188       26.35138
N         34.28898       35.60613       25.73551
C         35.47261       35.39601       26.56634
C         36.25910       36.69493       26.71767
O         35.84647       37.71598       26.18019
C         36.29270       34.19727       26.02999
C         36.65541       34.31347       24.56476
C         37.55373       35.29222       24.10613
C         36.08977       33.41955       23.63699
C         37.87277       35.37710       22.74640
C         36.40571       33.50961       22.27957
C         37.29834       34.49069       21.82880
O         37.60710       34.59269       20.52029
H         34.30136       36.40740       25.09555
H         35.15089       35.16261       27.60613
H         35.66470       33.29155       26.17102
H         37.20983       34.03198       26.63350
H         38.01435       35.98623       24.79470
H         35.39567       32.65395       23.96115
H         38.56502       36.13594       22.40431
H         35.95391       32.81739       21.58003
H         37.22218       34.00508       19.85410
N         37.37439       36.75059       27.49835
C         38.04159       38.00777       27.81132
C         38.05056       38.16146       29.31657
O         38.73518       37.40120       29.98937
C         39.44134       38.03689       27.17751
C         40.14502       39.39043       27.37426
C         41.45878       39.47818       26.64110
O         42.17651       40.61498       26.70961
O         41.87847       38.54513       25.97305
H         37.73592       35.88437       27.92698
H         37.47659       38.85902       27.37245
H         39.31089       37.87108       26.08473
H         40.06857       37.21329       27.58418
H         40.32651       39.56268       28.45647
H         39.48958       40.20180       26.98964
N         37.23686       39.07569       29.92232
C         37.12198       39.18415       31.37485
C         36.54299       37.90875       31.99849
O         36.54004       37.82458       33.21919
C         36.23627       40.38668       31.80691
C         36.80988       41.78071       31.49961
C         36.85684       42.10933       30.03692
O         37.91951       42.37649       29.49989
O         35.72084       42.12689       29.31308
H         36.65669       39.67921       29.32494
H         38.14101       39.34021       31.79359
H         36.13212       40.34969       32.91418
H         35.21963       40.30096       31.37293
H         37.82070       41.86683       31.95361
H         36.15317       42.53628       31.98235
N         36.02618       36.88791       31.24735
C         35.48403       35.67006       31.81724
H         34.41964       35.56614       31.51866
H         36.05145       34.79947       31.42595
H         35.54081       35.65375       32.92555
H         35.98886       36.95711       30.22212
Ca        33.39927       43.81854       28.18390
O         31.79065       44.29885       31.17821
H         31.99525       45.20772       31.51258
H         30.80161       44.26108       31.14859
O         34.95496       44.96950       31.06117
H         34.58629       45.80222       31.44961
H         35.93116       45.03763       31.21145
O         30.57418       45.00610       27.41665
H         30.04936       44.69723       28.19763
H         30.59785       44.22474       26.80851
O         33.11355       46.85190       29.04926
H         34.00287       47.25236       29.22014
H         32.47066       47.57373       29.26327
O         33.15398       43.63516       25.19706
H         33.92288       43.05097       24.97821
H         33.46900       44.55027       24.98762
O         36.05974       45.45425       27.73013
H         36.60057       44.62505       27.71224
H         36.35923       45.92842       28.54610

Ca 1.0



