%chk=apoCaM-CA-Ng.loop3.water5.frame485.chk
%nprocshared=20
%mem=10GB
%nosave
#b3lyp/svp scf=(tight,noincore,xqc) Test 
#IOP(5/87=12) Density=Current Pop=(MK,readradii) iop(6/33=2) iop(6/42=6)

apoCaM-CA-Ng.loop3.water5.frame485 

   0  1 
C         46.32487       33.44991       95.02096
C         45.74017       32.06856       95.09960
O         44.78514       31.87206       95.83584
H         47.18356       33.48642       94.31720
H         45.55099       34.16192       94.66637
H         46.68253       33.76690       96.02161
N         46.27353       31.05674       94.35773
C         45.79078       29.68056       94.34332
C         45.92459       29.05382       95.72576
O         44.96744       28.48100       96.22992
C         44.35196       29.63103       93.76215
C         43.84152       28.24744       93.45278
O         42.71866       28.11503       92.99240
O         44.60527       27.15557       93.65231
H         47.08492       31.26675       93.75621
H         46.45759       29.11473       93.65485
H         44.33657       30.20292       92.80921
H         43.64501       30.11952       94.46647
N         47.09614       29.17482       96.41851
C         47.29434       28.62746       97.75661
C         47.27081       29.76203       98.76763
O         48.18881       29.89543       99.56687
C         48.63342       27.85017       97.81214
C         48.75357       26.69389       96.80979
C         47.84912       25.50626       97.15477
C         48.05194       24.36917       96.14418
N         47.25616       23.19760       96.50548
H         47.86148       29.72927       96.00483
H         46.45448       27.95543       98.03416
H         48.81502       27.45990       98.83817
H         49.44675       28.57274       97.57702
H         49.80656       26.33575       96.84053
H         48.54883       27.06072       95.78069
H         46.78259       25.81428       97.14780
H         48.11249       25.14114       98.17220
H         49.12650       24.07928       96.11429
H         47.75628       24.72152       95.13072
H         46.24165       23.44726       96.54587
H         47.39643       22.45428       95.78362
H         47.56762       22.82859       97.43357
N         46.22604       30.63767       98.76908
C         46.09503       31.73790       99.71074
C         44.71254       31.69782      100.34405
O         43.72309       31.59838       99.63104
C         46.37012       33.07803       99.00718
C         46.39066       34.18455      100.02593
O         47.52592       34.82938      100.33612
O         45.38135       34.46530      100.64074
H         45.49883       30.54047       98.04555
H         46.87219       31.66347      100.50460
H         45.62289       33.28993       98.21265
H         47.37724       33.02121       98.53805
N         44.57962       31.82043      101.69213
C         43.31632       31.75652      102.40500
C         42.27169       32.73702      101.91339
O         41.17173       32.29737      101.60989
H         45.42738       31.96625      102.25847
H         43.51242       31.96472      103.47952
H         42.90987       30.72456      102.33131
N         42.52673       34.07409      101.82400
C         41.49152       35.05816      101.50179
C         41.54587       35.60361      100.07895
O         40.65083       36.37274       99.75360
C         41.49514       36.19026      102.56057
C         42.74401       37.04879      102.60139
N         42.84729       38.03495      103.52190
O         43.66069       36.86699      101.81435
H         43.47240       34.40383      102.04901
H         40.49431       34.57096      101.56937
H         41.36095       35.72664      103.56169
H         40.62839       36.86268      102.37889
H         42.08660       38.21059      104.19424
H         43.69020       38.62533      103.56455
N         42.50403       35.25550       99.16646
C         42.49131       35.74947       97.78950
C         43.63859       36.68794       97.46133
O         43.62476       37.24984       96.37662
H         43.25370       34.60707       99.43841
H         41.56410       36.32728       97.59339
H         42.48787       34.88924       97.08582
N         44.65968       36.91451       98.33349
C         45.72223       37.89138       98.11858
C         45.90352       38.68427       99.39677
O         45.99425       38.09057      100.46054
C         47.02439       37.19480       97.69198
C         48.17032       38.18027       97.56453
C         48.08283       39.30075       96.71491
C         49.33852       37.99034       98.31953
C         49.13619       40.21811       96.64205
C         50.39264       38.90396       98.23908
C         50.29267       40.02476       97.40362
O         51.29795       40.91982       97.32610
H         44.69443       36.37245       99.20351
H         45.45579       38.58309       97.29113
H         46.85572       36.70100       96.71020
H         47.28051       36.40754       98.42488
H         47.19755       39.47888       96.11889
H         49.43366       37.13446       98.97531
H         49.05099       41.08391       95.99696
H         51.28400       38.74117       98.83124
H         52.11316       40.82286       97.83890
N         45.96672       40.04156       99.36877
C         45.94152       40.83873      100.58827
C         44.51673       40.83744      101.12418
O         44.34513       40.88833      102.33384
C         46.53948       42.25412      100.33316
C         48.04341       42.08783       99.96647
C         46.37800       43.17143      101.56214
C         48.74308       43.37598       99.53690
H         45.94268       40.52546       98.45815
H         46.59354       40.35923      101.35593
H         45.99335       42.72220       99.48440
H         48.14212       41.37929       99.11864
H         48.59281       41.65419      100.83236
H         45.30712       43.31043      101.80934
H         46.89857       42.74669      102.44649
H         46.77574       44.18567      101.35907
H         49.79727       43.14295       99.27287
H         48.24111       43.80300       98.64400
H         48.76202       44.12587      100.35211
N         43.44707       40.68648      100.28300
C         42.07452       40.54736      100.75920
C         41.54019       41.81630      101.40752
O         40.47519       41.75447      102.00514
C         41.15188       40.12921       99.60457
O         41.63377       38.94663       99.02745
H         43.61694       40.61003       99.26910
H         42.06373       39.72964      101.51215
H         41.13754       40.94279       98.84320
H         40.12280       39.95449       99.98868
H         41.12851       38.82109       98.18302
N         42.22277       42.99755      101.33987
C         41.81965       44.23146      102.00122
C         41.76462       44.02855      103.50648
O         40.79522       44.41063      104.14806
C         40.51356       44.78116      101.40696
H         43.10495       43.04139      100.81234
H         42.61541       44.98397      101.80374
H         39.66327       44.09064      101.58448
H         40.26841       45.76400      101.86158
H         40.63011       44.92171      100.31112
N         42.78607       43.37049      104.12178
C         42.83706       43.07850      105.54489
C         44.22965       43.37046      106.06055
O         45.18073       42.81740      105.52445
C         42.50319       41.60294      105.77352
H         43.54228       42.99209      103.53378
H         42.07634       43.66853      106.10308
H         41.47596       41.39156      105.40557
H         43.21609       40.93986      105.23925
H         42.53607       41.37268      106.86071
N         44.42676       44.21802      107.10936
C         45.73902       44.52839      107.66941
C         46.59657       45.23832      106.63652
O         47.67930       44.76999      106.30915
C         46.43114       43.26206      108.24785
C         45.59345       42.53662      109.31169
C         45.32761       43.40480      110.50769
O         46.35434       43.89249      111.23030
O         44.18115       43.66738      110.83341
H         43.60665       44.66582      107.54572
H         45.59898       45.24387      108.50927
H         47.40682       43.55248      108.69649
H         46.65182       42.53632      107.43779
H         46.14871       41.63593      109.65126
H         44.63522       42.19540      108.86208
N         46.15419       46.40302      106.08616
C         46.90559       47.16395      105.10841
H         47.88275       46.69635      104.86477
H         46.31351       47.24834      104.17360
H         47.09659       48.18232      105.50708
H         45.23757       46.77657      106.37562
Ca        47.30879       36.20824      102.11150
O         47.46290       33.38930      103.17209
H         48.01519       32.83903      102.56219
H         47.14606       32.75646      103.86401
O         49.15080       38.27322      101.43287
H         48.88185       38.70877      102.27981
H         49.85219       37.62486      101.69521
O         48.86658       35.60213      104.56592
H         49.26974       36.39184      104.12509
H         48.37330       35.97292      105.33974
O         46.37945       38.29138      104.24224
H         46.04600       39.18407      104.51055
H         46.82875       37.94123      105.05181
O         45.10295       35.26640      104.61550
H         45.41385       34.39605      104.97045
H         44.34859       35.51854      105.20522

Ca 1.0



