%chk=apoCaM-CA-Ng.loop2.water3.frame538.chk
%nprocshared=20
%mem=10GB
%nosave
#b3lyp/svp scf=(tight,noincore,xqc) Test 
#IOP(5/87=12) Density=Current Pop=(MK,readradii) iop(6/33=2) iop(6/42=6)

apoCaM-CA-Ng.loop2.water3.frame538 

   -2  1 
C         76.81410       10.32434       40.55536
C         77.04384        8.87659       40.22374
O         76.22049        8.30953       39.52702
H         75.84004       10.43422       41.07747
H         77.61210       10.72766       41.21324
H         76.79178       10.92288       39.62041
N         78.13477        8.21673       40.71169
C         78.45693        6.80544       40.47038
C         78.77054        6.55302       38.99342
O         79.93448        6.45609       38.63100
C         79.66089        6.41753       41.37201
C         80.04709        4.96040       41.31454
O         79.43695        4.16566       40.61615
O         81.08353        4.52679       42.05616
H         78.76769        8.75556       41.32390
H         77.60370        6.16683       40.79027
H         79.40309        6.64813       42.42890
H         80.54480        7.03300       41.09326
N         77.76807        6.38956       38.08672
C         77.99465        6.24411       36.65261
C         78.55955        7.53339       36.08098
O         78.04576        8.58618       36.43582
C         76.66708        5.96569       35.93904
H         76.79831        6.35883       38.42831
H         78.65801        5.37336       36.46969
H         75.95285        6.80400       36.09252
H         76.84036        5.84333       34.84780
H         76.21442        5.03078       36.32909
N         79.54542        7.57683       35.13761
C         80.10931        6.40361       34.47158
C         81.25022        5.77509       35.25554
O         81.71137        6.35092       36.23192
C         80.54283        6.76615       33.02433
C         81.58557        7.85201       32.89744
O         81.94922        8.20604       31.78731
O         82.10909        8.45372       33.98013
H         79.77274        8.51228       34.76643
H         79.30913        5.64431       34.35168
H         79.63993        7.10697       32.47296
H         80.92728        5.85892       32.51291
N         81.77876        4.58423       34.84194
C         82.96404        3.99051       35.43969
C         82.78617        3.54633       36.87237
O         81.66106        3.51245       37.35065
H         81.36988        4.11352       34.02081
H         83.75914        4.74069       35.38119
H         83.27763        3.10097       34.85188
N         83.84687        3.17554       37.65256
C         85.26148        3.27413       37.27914
C         85.99228        4.24454       38.21537
O         87.21475        4.22035       38.25993
C         85.92148        1.88029       37.31957
C         85.29384        0.92455       36.33508
N         84.78058       -0.25645       36.74940
O         85.26813        1.21051       35.14683
H         83.64428        2.84806       38.61129
H         85.41151        3.65113       36.24862
H         85.87623        1.46912       38.35084
H         86.99272        1.98048       37.03574
H         84.80987       -0.52617       37.74311
H         84.36435       -0.91141       36.07093
N         85.30198        5.14311       38.97998
C         85.89232        6.05425       39.95190
C         86.79728        7.15723       39.41999
O         87.15879        8.00146       40.22815
H         84.27430        5.16684       38.92040
H         86.44350        5.47241       40.72135
H         85.05296        6.56793       40.47018
N         87.24091        7.23422       38.13044
C         88.15833        8.29069       37.69316
C         87.41349        9.59363       37.46224
O         86.19388        9.61635       37.56766
C         88.94632        7.87454       36.42256
C         89.79292        6.62277       36.66981
O         88.06992        7.65835       35.34697
H         86.98497        6.50080       37.46350
H         88.91777        8.45731       38.48904
H         89.65836        8.69443       36.17195
H         88.53165        7.96390       34.52237
H         89.15794        5.74847       36.91899
H         90.38241        6.38216       35.76056
H         90.50004        6.80381       37.50798
N         88.09497       10.72120       37.10398
C         87.43184       11.97747       36.79475
C         87.26846       12.08073       35.28720
O         88.25748       12.10889       34.56771
C         88.22273       13.20214       37.35282
C         87.45813       14.51775       37.02715
C         88.47038       13.05802       38.86565
C         88.17728       15.79401       37.46269
H         89.11735       10.67538       36.98403
H         86.42623       11.99394       37.27387
H         89.21757       13.23550       36.85379
H         86.44895       14.49774       37.49507
H         87.32893       14.59644       35.92753
H         89.09903       13.89070       39.24287
H         87.51160       13.04260       39.42458
H         89.03203       12.12589       39.08351
H         89.18630       15.84388       37.00229
H         87.59079       16.67580       37.12737
H         88.26390       15.85293       38.56589
N         86.02097       12.19156       34.75843
C         85.71753       12.44056       33.35879
C         85.09712       13.81942       33.18131
O         84.85428       14.17561       32.03772
C         84.73976       11.36877       32.84086
C         85.38830       10.01840       32.74419
O         86.21932        9.79645       31.87876
O         85.07566        9.05736       33.62610
H         85.22651       12.14862       35.39872
H         86.64345       12.43251       32.74347
H         84.34555       11.61731       31.83271
H         83.86254       11.34032       33.52348
N         84.84239       14.66768       34.23296
C         84.34636       16.02642       34.04442
C         83.03538       16.21111       34.82649
O         82.97129       17.08689       35.67596
C         85.48649       16.98020       34.50589
C         85.53401       18.39379       33.95806
C         84.62263       18.91022       33.01403
C         86.60496       19.20739       34.37688
C         84.80010       20.19928       32.49495
C         86.77106       20.49527       33.86189
C         85.87312       20.98878       32.91578
H         85.05219       14.38309       35.19853
H         84.16083       16.19830       32.96769
H         86.44404       16.53765       34.14989
H         85.53201       16.98498       35.61788
H         83.78970       18.32917       32.64948
H         87.32518       18.83567       35.09651
H         84.11090       20.58418       31.75466
H         87.60469       21.10522       34.18734
H         86.01239       21.98118       32.50576
N         81.94749       15.39074       34.61934
C         80.68263       15.45426       35.35904
C         80.75207       15.26491       36.86899
O         79.70390       15.34540       37.49834
C         79.88799       14.26097       34.80979
C         80.37506       14.17662       33.39026
C         81.87338       14.40341       33.56482
H         80.20462       16.42944       35.11458
H         80.24181       13.32536       35.30754
H         78.78729       14.33196       34.94650
H         80.11134       13.23953       32.85600
H         79.94067       15.04416       32.84379
H         82.39649       13.48331       33.90325
H         82.27300       14.76767       32.59512
N         81.91514       14.99392       37.52402
C         81.99640       14.86768       38.96859
C         82.37819       16.21872       39.51198
O         81.65389       16.76045       40.33502
C         83.01734       13.80296       39.43382
C         82.71725       12.35535       39.00984
C         83.12988       11.99432       37.61796
O         83.05127       10.70506       37.25517
O         83.61465       12.81131       36.86049
H         82.79569       14.98814       37.00200
H         81.00869       14.57687       39.39613
H         82.97267       13.81010       40.54511
H         84.05985       14.06439       39.14576
H         81.64906       12.10269       39.17968
H         83.33564       11.69525       39.65498
N         83.48709       16.85258       39.04137
C         83.84309       18.18602       39.45979
H         84.74355       18.52255       38.90392
H         83.00750       18.88242       39.23138
H         84.05644       18.19713       40.54798
H         84.07749       16.39386       38.33122
Ca        84.06811        9.76736       35.50028
O         84.96103        6.81705       35.30662
H         85.87440        6.53645       35.54831
H         84.84619        6.46351       34.38902
O         83.53238        8.19960       38.77987
H         83.35044        8.93233       39.42056
H         83.04659        7.42110       39.15097
O         80.90856        9.43394       37.52811
H         80.50866        8.55843       37.72225
H         80.29741        9.86878       36.88459

Ca 1.0



