%chk=apoCaM-CA-Ng.loop1.water3.frame1407.chk
%nprocshared=20
%mem=10GB
%nosave
#b3lyp/svp scf=(tight,noincore,xqc) Test 
#IOP(5/87=12) Density=Current Pop=(MK,readradii) iop(6/33=2) iop(6/42=6)

apoCaM-CA-Ng.loop1.water3.frame1407 

   0  1 
C         51.38845       59.65586      108.14643
C         51.20536       60.94731      108.88861
O         50.69084       61.90189      108.32437
H         52.46885       59.39462      108.11948
H         50.83536       58.84484      108.66414
H         51.01917       59.73931      107.10268
N         51.65373       61.04944      110.16819
C         51.59903       62.27180      110.96281
C         53.00637       62.82684      111.14985
O         53.20239       63.69373      111.99027
C         50.94436       61.96532      112.32803
C         49.52305       61.47041      112.23513
O         48.85529       61.17806      113.36698
O         48.96220       61.33635      111.15859
H         52.12149       60.22924      110.58736
H         51.00222       63.06809      110.46529
H         50.92981       62.89334      112.94005
H         51.55099       61.20293      112.86352
N         54.02773       62.41029      110.34624
C         55.40233       62.87253      110.45348
C         55.55232       64.38809      110.39070
O         56.31103       64.88161      111.21447
C         56.31692       62.14897      109.43676
C         56.41897       60.64982      109.79643
C         57.35484       59.86516      108.87309
C         57.47820       58.41333      109.36887
N         58.36388       57.62840      108.51161
H         53.82678       61.73349      109.59827
H         55.78480       62.57915      111.45844
H         57.34116       62.57798      109.50245
H         55.94066       62.29562      108.40024
H         55.41797       60.16991      109.76839
H         56.81252       60.57192      110.83449
H         58.36225       60.33521      108.87616
H         56.95206       59.87979      107.83696
H         56.47292       57.93589      109.39031
H         57.88444       58.41229      110.40592
H         57.97486       57.58127      107.54232
H         59.31856       58.05476      108.49320
H         58.43523       56.65799      108.89569
N         54.88589       65.24766      109.56323
C         53.86120       64.96250      108.55979
C         52.52054       65.48410      109.05923
O         52.46270       65.98912      110.17086
C         54.30141       65.54293      107.18878
C         55.02532       66.87800      107.23300
O         54.45379       68.07180      107.51330
O         56.22219       66.87591      106.99033
H         55.08370       66.24969      109.71748
H         53.71044       63.87565      108.41294
H         53.48130       65.54677      106.44126
H         55.05578       64.81574      106.81038
N         51.38043       65.33846      108.32071
C         50.06370       65.72942      108.81908
C         49.51463       66.90199      108.05574
O         50.17194       67.37648      107.15036
H         51.43662       64.92929      107.37588
H         50.11236       66.03536      109.88470
H         49.37055       64.86432      108.74733
N         48.33887       67.48326      108.42887
C         47.80870       68.69582      107.79243
C         46.33216       68.50764      107.45688
O         45.78522       67.48466      107.84572
C         48.08042       69.87482      108.75528
C         49.56292       69.92293      109.01526
O         50.39875       70.04692      107.96600
O         50.00504       69.71603      110.13351
H         47.85565       67.11168      109.26154
H         48.34574       68.89067      106.83945
H         47.53114       69.71439      109.70988
H         47.77111       70.84461      108.33132
N         45.57698       69.38742      106.73075
C         45.99550       70.63088      106.10153
C         47.00035       70.42187      104.99388
O         46.80949       69.53609      104.17299
H         44.58514       69.13655      106.58874
H         46.32671       71.38297      106.84179
H         45.09766       71.06971      105.61357
N         48.04716       71.28134      104.84985
C         49.00998       71.19007      103.75477
C         49.91409       69.99006      103.95624
O         50.46851       69.84518      105.03462
C         49.85480       72.48303      103.63948
C         48.97400       73.68678      103.26861
O         50.82187       72.31001      102.63310
H         48.12763       72.06446      105.51702
H         48.47001       71.10048      102.78495
H         50.35587       72.67208      104.61390
H         51.51115       73.01197      102.76755
H         48.47043       73.50834      102.29323
H         48.19942       73.87633      104.03913
H         49.59933       74.59957      103.17454
N         50.13369       69.11926      102.92570
C         51.00208       67.94134      102.95877
C         52.44241       68.31844      103.28525
O         52.71698       68.78168      104.38351
C         50.48046       66.84926      103.93047
C         49.00046       66.50007      103.63043
C         51.37780       65.59307      103.87491
C         48.38446       65.50036      104.61301
H         49.66283       69.30993      102.02826
H         50.97580       67.49236      101.94055
H         50.54294       67.26388      104.93832
H         48.90726       66.09901      102.59855
H         48.39256       67.42574      103.70005
H         51.34264       65.13334      102.86467
H         52.43163       65.84353      104.11317
H         51.06946       64.84194      104.62877
H         48.45139       65.88304      105.65132
H         47.31281       65.35383      104.36398
H         48.87828       64.51009      104.55168
N         53.42850       68.08261      102.37886
C         54.83803       68.33096      102.65263
C         55.43402       69.36274      101.71485
O         56.61512       69.63423      101.87726
C         55.63831       67.00396      102.61989
C         55.56776       66.27484      101.27564
O         55.16386       66.14164      103.62176
H         53.17082       67.68649      101.46369
H         54.97289       68.75073      103.67547
H         56.71689       67.23218      102.80404
H         55.71547       66.30412      104.43063
H         55.93444       66.92607      100.45526
H         56.20309       65.36527      101.31646
H         54.53061       65.95057      101.05231
N         54.71307       70.00169      100.73795
C         55.31109       71.05167       99.91187
C         55.68746       72.20064      100.83177
O         54.80668       72.89535      101.32030
C         54.37501       71.50278       98.76364
C         54.08012       70.35174       97.79538
O         53.15642       71.98664       99.27381
H         53.72395       69.75780      100.59286
H         56.22841       70.63140       99.44099
H         54.89847       72.29229       98.17168
H         53.16831       72.97572       99.18940
H         53.43767       70.71318       96.96518
H         55.02493       69.95742       97.36473
H         53.54853       69.52104       98.30554
N         56.97667       72.30270      101.26814
C         57.41113       73.08990      102.41987
C         56.65051       72.68173      103.68333
O         55.66732       71.95843      103.60414
C         57.31676       74.60971      102.18281
C         58.10813       75.05324      100.94456
C         58.11285       76.58210      100.82028
C         58.83981       77.03363       99.54710
N         58.88087       78.49319       99.45905
H         57.68625       71.68185      100.84937
H         58.48301       72.84109      102.59247
H         57.73620       75.12607      103.07433
H         56.25625       74.92181      102.07205
H         57.64650       74.60326      100.03867
H         59.15999       74.69964      101.02427
H         58.62358       77.01457      101.70938
H         57.06736       76.95925      100.79107
H         58.30766       76.62605       98.65864
H         59.88026       76.63914       99.54546
H         59.42582       78.88429      100.26180
H         59.34982       78.76974       98.56641
H         57.91098       78.88461       99.46762
N         57.07423       73.09600      104.90696
C         56.34804       72.78161      106.13652
C         56.09439       71.28172      106.29436
O         54.93194       70.92640      106.42335
C         57.03533       73.36510      107.39098
C         57.12364       74.90003      107.34357
C         57.73134       75.43840      108.60519
O         57.09732       76.20295      109.31460
O         58.98484       75.09052      108.95425
H         57.94166       73.64935      104.95619
H         55.34894       73.27275      106.07630
H         58.04840       72.93579      107.52675
H         56.42373       73.08614      108.27846
H         56.10235       75.32166      107.21340
H         57.74962       75.23657      106.49240
N         57.05674       70.31461      106.27922
C         58.47436       70.51330      106.07615
H         59.02545       70.12015      106.95495
H         58.78811       69.94554      105.17472
H         58.75603       71.56685      105.92456
H         56.75170       69.33725      106.39552
Ca        52.45960       69.10256      107.84945
O         53.54730       71.90808      109.16053
H         54.02107       71.78033      110.02045
H         53.52049       72.88982      109.03693
O         53.06220       68.96848      110.87358
H         52.69907       69.88834      110.88666
H         52.31453       68.42466      110.52377
O         52.44715       72.26033      106.02792
H         52.85671       72.39208      105.13566
H         52.46149       73.15901      106.44266

Ca 1.0



