%chk=apoCaM-CA-Ng.loop3.water3.frame755.chk
%nprocshared=20
%mem=10GB
%nosave
#b3lyp/svp scf=(tight,noincore,xqc) Test 
#IOP(5/87=12) Density=Current Pop=(MK,readradii) iop(6/33=2) iop(6/42=6)

apoCaM-CA-Ng.loop3.water3.frame755 

   0  1 
C          9.01674       23.14562       -3.29149
C         10.37313       22.75839       -3.79252
O         10.69510       23.12930       -4.91217
H          8.23645       22.73384       -3.96425
H          8.84431       22.78030       -2.25917
H          8.94115       24.25526       -3.29091
N         11.23319       22.02801       -3.01861
C         12.60325       21.74538       -3.42503
C         12.82891       20.24620       -3.60342
O         12.64381       19.48995       -2.66053
C         13.58073       22.37774       -2.41323
C         14.98850       22.51289       -2.94136
O         15.87122       22.91534       -2.20139
O         15.27746       22.25624       -4.23365
H         10.92295       21.70248       -2.09056
H         12.79085       22.24077       -4.37628
H         13.56597       21.77969       -1.47648
H         13.24909       23.40923       -2.16677
N         13.23443       19.75738       -4.81228
C         13.47255       18.34457       -5.10995
C         14.55565       17.74988       -4.22284
O         14.30427       16.72973       -3.59683
C         13.87968       18.16635       -6.59645
C         12.70643       18.42920       -7.55982
C         13.12473       18.22745       -9.02518
C         11.90809       18.28903       -9.96263
N         12.30521       18.09929      -11.35832
H         13.38484       20.43339       -5.57184
H         12.53762       17.76193       -4.94731
H         14.19564       17.11116       -6.75653
H         14.74416       18.82474       -6.83753
H         12.30744       19.45895       -7.43575
H         11.89858       17.70529       -7.31371
H         13.59931       17.22879       -9.14221
H         13.86466       19.00895       -9.30732
H         11.39203       19.26866       -9.85696
H         11.19306       17.48394       -9.67878
H         12.92660       18.88274      -11.66418
H         12.80373       17.18686      -11.47384
H         11.44964       18.09132      -11.95997
N         15.78218       18.33317       -4.12502
C         16.89388       17.77133       -3.34777
C         17.14321       18.54242       -2.05181
O         18.04983       18.15870       -1.32518
C         18.16744       17.66107       -4.24537
C         18.65374       18.99263       -4.76061
O         18.08145       20.09396       -4.26727
O         19.51993       19.06859       -5.61619
H         15.91435       19.22680       -4.61820
H         16.64473       16.73685       -3.02421
H         17.89901       17.03091       -5.12022
H         18.99472       17.15876       -3.69867
N         16.35296       19.58839       -1.65351
C         16.51951       20.24420       -0.36119
C         17.81626       21.02075       -0.21743
O         18.14767       21.37961        0.90309
H         15.55925       19.88453       -2.23697
H         16.47878       19.45584        0.42228
H         15.67757       20.94291       -0.16816
N         18.59156       21.33021       -1.29487
C         19.89476       21.97206       -1.21379
C         19.90251       23.29689       -1.96159
O         19.67117       23.31470       -3.16276
C         20.94556       21.02770       -1.84578
C         22.36585       21.55488       -1.81476
N         23.35153       20.86229       -2.42900
O         22.63486       22.60527       -1.25010
H         18.25497       21.08268       -2.22521
H         20.17882       22.14070       -0.15190
H         20.66679       20.85188       -2.90859
H         20.92637       20.04703       -1.32276
H         23.14629       19.98144       -2.92255
H         24.31968       21.21663       -2.42557
N         20.26661       24.43802       -1.31327
C         20.55581       25.68771       -1.99395
C         19.36986       26.29279       -2.70098
O         18.38219       26.60705       -2.05228
H         20.45393       24.39944       -0.29988
H         21.38720       25.51104       -2.71080
H         20.91864       26.42717       -1.24802
N         19.43752       26.54867       -4.04060
C         18.39461       27.25665       -4.77913
C         17.07584       26.50860       -4.79028
O         16.99480       25.39315       -4.29526
C         18.84488       27.50274       -6.24247
C         20.04510       28.40988       -6.34548
C         21.24478       27.94713       -6.91077
C         19.96333       29.74139       -5.90334
C         22.34450       28.80272       -7.02883
C         21.06314       30.59466       -6.02296
C         22.25605       30.13083       -6.58603
O         23.30567       30.96911       -6.70024
H         20.29735       26.27915       -4.54338
H         18.21619       28.23467       -4.28127
H         18.03842       27.98453       -6.83314
H         19.05405       26.51968       -6.71536
H         21.32918       26.92692       -7.26410
H         19.04503       30.12305       -5.47500
H         23.26239       28.43375       -7.46863
H         20.98498       31.61955       -5.68250
H         24.14640       30.69074       -7.09036
N         15.98617       27.11272       -5.35090
C         14.64714       26.54942       -5.46648
C         14.67300       25.32742       -6.37348
O         15.29503       24.33917       -6.02053
C         14.01843       26.24623       -4.07047
C         12.54001       25.78644       -4.16915
C         14.14985       27.44712       -3.11552
C         11.55615       26.83266       -4.70792
H         16.10248       28.06753       -5.72404
H         14.02584       27.33201       -5.95024
H         14.58061       25.40849       -3.60541
H         12.19066       25.48506       -3.15779
H         12.48793       24.89330       -4.81739
H         13.65333       28.34929       -3.52742
H         13.70296       27.20162       -2.12849
H         15.21795       27.69410       -2.94198
H         11.52253       27.72554       -4.05054
H         11.81318       27.14326       -5.74000
H         10.53573       26.39581       -4.73080
N         14.04376       25.34051       -7.58529
C         14.05758       24.19647       -8.49705
C         13.67203       24.61538       -9.89126
O         12.60664       25.18397      -10.08531
C         13.08356       23.08406       -8.07437
O         13.46343       22.51921       -6.86414
H         13.59345       26.21566       -7.89180
H         15.08232       23.76768       -8.53326
H         13.09952       22.26943       -8.83210
H         12.03175       23.45204       -8.02364
H         13.13176       23.15106       -6.18598
N         14.47952       24.26910      -10.93084
C         14.10375       24.50467      -12.31669
C         14.81590       23.53126      -13.25491
O         15.77264       22.89276      -12.84240
C         14.38922       25.96600      -12.67352
H         15.32538       23.72276      -10.71663
H         13.02160       24.26418      -12.40437
H         15.46819       26.18559      -12.52888
H         14.13800       26.18937      -13.72423
H         13.80087       26.64327      -12.01835
N         14.35845       23.25344      -14.51136
C         13.19526       23.85947      -15.15063
C         13.55119       24.31134      -16.56198
O         14.53851       23.82034      -17.09446
C         12.08181       22.80641      -15.20163
H         14.84186       22.49836      -15.02535
H         12.81278       24.70747      -14.56726
H         12.41539       21.91518      -15.77477
H         11.82860       22.48514      -14.16794
H         11.15735       23.19395      -15.66826
N         12.79431       25.17677      -17.29743
C         11.65438       25.94531      -16.81241
C         12.06448       26.96350      -15.75739
O         11.49772       26.94958      -14.67269
C         10.85689       26.60899      -17.97105
C         11.43954       27.78475      -18.79454
C         12.59257       27.46774      -19.71647
O         13.82992       27.24114      -19.23846
O         12.42604       27.50613      -20.92532
H         13.05928       25.27835      -18.28286
H         10.92228       25.24467      -16.36383
H          9.93081       27.01240      -17.50239
H         10.53577       25.81097      -18.67622
H         11.69746       28.64647      -18.14642
H         10.59982       28.12313      -19.44197
N         13.04392       27.87775      -16.00074
C         13.42643       28.88926      -15.03870
H         14.25064       29.50942      -15.45164
H         12.56104       29.54898      -14.81939
H         13.77877       28.42337      -14.09783
H         13.54286       27.86196      -16.89814
Ca        17.41867       22.10554       -4.92127
O         16.85060       21.10262       -7.77763
H         17.13694       20.31401       -7.25173
H         16.01175       21.39869       -7.34286
O         20.42052       22.45297       -6.06587
H         19.98653       21.98765       -6.82469
H         20.73404       21.72375       -5.47439
O         17.98743       24.13098       -7.42562
H         18.93675       24.25739       -7.67581
H         17.50398       24.13128       -8.28902

Ca 1.0



