%chk=apoCaM-CA-Ng.loop2.water2.frame917.chk
%nprocshared=20
%mem=10GB
%nosave
#b3lyp/svp scf=(tight,noincore,xqc) Test 
#IOP(5/87=12) Density=Current Pop=(MK,readradii) iop(6/33=2) iop(6/42=6)

apoCaM-CA-Ng.loop2.water2.frame917 

   -2  1 
C          4.52512       11.06454       12.45885
C          5.36074        9.95279       11.89828
O          5.75894       10.03110       10.74466
H          3.53171       10.67004       12.75806
H          5.02956       11.49964       13.34682
H          4.37813       11.86668       11.70375
N          5.67272        8.87784       12.67595
C          6.47915        7.75666       12.21291
C          7.77017        7.71918       13.02055
O          8.04724        6.75799       13.72497
C          5.63374        6.46519       12.29030
C          6.29875        5.24962       11.69164
O          5.63569        4.07799       11.67720
O          7.41585        5.31013       11.20121
H          5.32629        8.85500       13.64805
H          6.76223        7.89270       11.14526
H          4.69381        6.63149       11.71876
H          5.36323        6.25520       13.34727
N          8.62602        8.77312       12.92117
C          9.92004        8.86083       13.59241
C          9.76295        8.97398       15.10506
O          8.95607        9.79564       15.51929
C         10.65307       10.11818       13.10699
H          8.35003        9.54594       12.29429
H         10.54008        8.00665       13.27338
H         11.65427       10.18663       13.58209
H         10.79226       10.07338       12.00585
H         10.07533       11.03527       13.35491
N         10.52833        8.30543       16.02576
C         11.59834        7.33803       15.75810
C         11.49048        6.14912       16.70663
O         10.65114        6.15254       17.59709
C         12.99641        8.00889       15.85367
C         13.28671        8.55041       17.22190
O         12.46378        9.47445       17.72808
O         14.23874        8.15270       17.87239
H         10.36761        8.56211       17.01234
H         11.50773        6.93497       14.73681
H         13.04736        8.84735       15.12693
H         13.78469        7.27704       15.57493
N         12.29896        5.06787       16.53587
C         12.20487        3.86103       17.34012
C         13.57555        3.36762       17.73843
O         13.99262        2.36510       17.17508
H         12.95098        5.06056       15.73616
H         11.75862        3.08721       16.67701
H         11.53202        3.96109       18.21681
N         14.38119        3.97014       18.65957
C         14.04280        5.11093       19.50796
C         13.00043        4.70309       20.54362
O         13.18473        3.67094       21.17507
C         15.32901        5.56761       20.24658
C         15.20305        6.86440       21.01048
N         16.24078        7.30323       21.75852
O         14.18438        7.53346       20.94588
H         15.32169        3.55716       18.77437
H         13.69778        5.95265       18.87632
H         16.14340        5.72019       19.50505
H         15.64759        4.76180       20.94466
H         17.11082        6.75501       21.82275
H         16.17321        8.18723       22.28278
N         11.91174        5.48260       20.81037
C         10.88060        5.10960       21.77615
C         10.78824        6.02231       22.99162
O          9.90567        5.79125       23.80434
H         11.80554        6.37538       20.30708
H         11.04260        4.08071       22.16191
H          9.90322        5.11556       21.24860
N         11.65401        7.05457       23.20338
C         11.59437        7.95335       24.35987
C         11.34934        9.38008       23.89475
O         11.27151        9.61609       22.70101
C         12.92347        7.86771       25.16669
C         13.07553        6.51933       25.86787
O         14.03467        8.06625       24.33194
H         12.39552        7.22694       22.51725
H         10.75117        7.69253       25.03570
H         12.93793        8.62333       25.98432
H         14.00624        9.01084       24.03770
H         12.23488        6.36394       26.57766
H         13.09725        5.68784       25.13405
H         14.02348        6.50837       26.44940
N         11.24531       10.39171       24.80697
C         11.11731       11.80081       24.44719
C         12.42326       12.45198       24.83368
O         12.78768       12.41306       26.00011
C          9.84768       12.42497       25.10908
C          9.62914       13.93554       24.79891
C          8.60625       11.66120       24.60510
C         10.57540       14.89982       25.51884
H         11.31617       10.16479       25.80985
H         10.99422       11.91466       23.35440
H          9.89261       12.29633       26.21330
H          8.61411       14.21968       25.15549
H          9.66252       14.11434       23.70364
H          7.68392       12.05652       25.08231
H          8.50411       11.76471       23.50242
H          8.66953       10.58218       24.85688
H         10.27631       15.94401       25.28621
H         10.50574       14.75233       26.61748
H         11.62459       14.79376       25.20429
N         13.20382       13.03311       23.87480
C         14.53784       13.55875       24.13835
C         14.62477       15.05909       23.92791
O         15.68882       15.60253       24.20404
C         15.54688       12.86332       23.20199
C         15.52773       11.37170       23.35535
O         15.84866       10.80794       24.53520
O         15.22897       10.66446       22.40607
H         12.86070       13.06896       22.90488
H         14.82479       13.36378       25.19486
H         16.57747       13.22254       23.41054
H         15.29613       13.12298       22.14803
N         13.59554       15.80325       23.42577
C         13.71915       17.23853       23.21089
C         12.52155       17.79656       22.44705
O         11.41692       17.73752       22.97630
C         13.81919       17.99878       24.55886
C         13.89889       19.48631       24.30393
C         12.82203       20.32262       24.64623
C         15.02509       20.03835       23.67207
C         12.86706       21.68626       24.34475
C         15.06879       21.40382       23.37884
C         13.98872       22.22629       23.71021
H         12.71996       15.34031       23.14078
H         14.64679       17.41295       22.62976
H         14.69368       17.68165       25.16322
H         12.90803       17.76048       25.15292
H         11.93746       19.91616       25.12126
H         15.86234       19.40893       23.39731
H         12.02758       22.32208       24.59431
H         15.93627       21.82188       22.88555
H         14.01917       23.28118       23.47184
N         12.65545       18.42719       21.23798
C         11.58156       19.16874       20.59352
C         10.50106       18.28258       20.00104
O          9.51621       18.81581       19.51123
C         12.31649       20.00021       19.53677
C         13.44252       19.07078       19.13447
C         13.89260       18.52667       20.48651
H         11.09802       19.86368       21.31604
H         11.68629       20.39298       18.71121
H         12.79742       20.86481       20.05044
H         12.99116       18.23582       18.55074
H         14.25788       19.52518       18.53274
H         14.38472       17.54204       20.32791
H         14.57535       19.22689       21.01266
N         10.60759       16.92693       20.01200
C          9.56972       16.04057       19.49501
C          8.28796       16.06266       20.31953
O          7.32631       15.43503       19.89704
C         10.13241       14.61443       19.40303
C         10.48074       14.00085       20.77691
C         11.37897       12.83608       20.55482
O         12.45911       13.00507       20.01145
O         11.01473       11.59891       20.90501
H         11.48441       16.51300       20.35164
H          9.33415       16.36807       18.45762
H         11.04954       14.69733       18.77685
H          9.43091       13.93528       18.86904
H          9.54761       13.70598       21.30394
H         11.03559       14.70078       21.43090
N          8.19778       16.73635       21.50436
C          6.99656       16.77663       22.31250
H          6.15658       16.21205       21.85697
H          7.21281       16.34200       23.31094
H          6.67933       17.83268       22.44137
H          9.01133       17.24145       21.87839
Ca        12.28968       10.10792       19.85197
O         15.15535       11.75618       19.28974
H         16.02284       11.79459       19.76509
H         14.95525       12.69978       19.06631
O         10.04426        8.29594       20.17866
H          9.45450        9.08304       20.28899
H          9.47063        7.60625       19.76136

Ca 1.0



