%chk=apoCaM-CA-Ng.loop4.water3.frame980.chk
%nprocshared=20
%mem=10GB
%nosave
#b3lyp/svp scf=(tight,noincore,xqc) Test 
#IOP(5/87=12) Density=Current Pop=(MK,readradii) iop(6/33=2) iop(6/42=6)

apoCaM-CA-Ng.loop4.water3.frame980 

   -3  1 
C         52.58026      105.50248       83.94582
C         52.85193      106.74922       84.73198
O         52.95371      107.81910       84.14958
H         52.50180      105.72568       82.86112
H         53.40385      104.77538       84.10679
H         51.62527      105.05046       84.28879
N         52.96995      106.67262       86.08587
C         53.21289      107.80796       86.96703
C         52.08085      108.81031       86.87502
O         52.32765      109.99012       86.66398
C         54.59540      108.44783       86.70411
C         55.69394      107.44004       86.86236
O         55.86915      106.81088       88.03926
O         56.43021      107.18399       85.92534
H         52.86637      105.74767       86.53185
H         53.21204      107.42894       88.01403
H         54.77141      109.27080       87.43062
H         54.63194      108.88448       85.68257
N         50.79387      108.39161       87.03977
C         49.65488      109.29856       87.05143
C         48.95403      109.10178       88.39367
O         48.37905      108.03879       88.58386
C         48.70714      109.01592       85.84491
C         49.49492      109.12301       84.51070
C         47.51017      109.98846       85.85505
C         48.67161      108.77848       83.26823
H         50.61408      107.38526       87.18204
H         50.00297      110.34088       86.92750
H         48.31794      107.97757       85.93739
H         50.33997      108.40491       84.53493
H         49.91354      110.14699       84.39456
H         46.95533      109.92623       86.81394
H         47.85526      111.03295       85.70356
H         46.78421      109.74004       85.05570
H         49.32682      108.81925       82.37235
H         48.25356      107.75336       83.35505
H         47.84881      109.50420       83.11066
N         48.97535      110.01551       89.40993
C         49.70360      111.28085       89.37851
C         50.22499      111.65046       90.76900
O         49.79493      111.06503       91.75380
C         48.79478      112.33044       88.71317
C         49.40071      113.68108       88.53293
O         48.73466      114.76013       88.97209
O         50.44679      113.81958       87.92260
H         48.48047      109.75388       90.27681
H         50.63487      111.13314       88.79303
H         47.85280      112.42621       89.29612
H         48.52616      111.96760       87.70400
N         51.26849      112.52280       90.90085
C         51.96114      112.75020       92.16347
C         52.06273      114.20106       92.57283
O         52.70446      114.45107       93.58376
H         51.66438      112.96285       90.05720
H         52.99841      112.36930       92.04574
H         51.49201      112.18955       92.99973
N         51.47031      115.21207       91.87406
C         51.63521      116.61493       92.26549
C         50.60517      117.59653       91.69061
O         50.68323      118.75656       92.06804
C         53.09301      117.06952       91.97717
C         53.54542      116.80202       90.56231
O         52.99683      117.33317       89.61441
O         54.58199      115.97167       90.33849
H         50.91987      114.96032       91.04969
H         51.45685      116.69371       93.36125
H         53.77913      116.51066       92.64605
H         53.21920      118.14711       92.21862
N         49.59236      117.24351       90.84306
C         48.58037      118.17274       90.35674
C         49.11019      119.27481       89.46037
O         48.31178      120.10355       89.04911
H         49.47233      116.27565       90.55868
H         48.06599      118.62821       91.23043
H         47.82104      117.60804       89.77171
N         50.42967      119.36582       89.12092
C         51.01453      120.44465       88.33599
C         50.55739      120.41849       86.88395
O         50.80861      121.38289       86.17499
C         50.82333      121.81151       89.04501
C         51.32838      121.73257       90.50227
C         51.26609      123.02458       91.27092
N         51.64026      123.03784       92.57235
O         50.88004      124.05484       90.73913
H         51.08184      118.65724       89.45524
H         52.11547      120.28433       88.29342
H         49.75689      122.12003       89.04419
H         51.40521      122.58329       88.49522
H         52.38129      121.37598       90.51161
H         50.69993      121.00755       91.05364
H         51.95988      122.17264       93.03466
H         51.60552      123.90769       93.12340
N         49.97707      119.30046       86.34676
C         49.58550      119.18396       84.94331
C         50.37922      118.10919       84.19832
O         50.21099      118.02340       82.98882
C         48.06072      118.87866       84.82689
C         47.67053      117.53358       85.47706
C         47.21798      120.00808       85.43111
H         49.82756      118.48113       86.94883
H         49.79187      120.14077       84.41507
H         47.80163      118.81589       83.74636
H         48.24233      116.69502       85.02785
H         47.84879      117.53785       86.57248
H         46.59177      117.32816       85.31365
H         46.13664      119.79249       85.29197
H         47.41672      120.11468       86.51745
H         47.44790      120.96945       84.92609
N         51.19304      117.21300       84.83628
C         51.82320      116.08499       84.15130
C         53.29744      115.95556       84.51676
O         53.73683      116.54992       85.49259
C         51.04691      114.82135       84.58592
C         51.55084      113.52315       84.01185
N         51.99578      112.54050       84.83066
O         51.54465      113.34981       82.80262
H         51.28427      117.24802       85.86098
H         51.74144      116.20219       83.04822
H         49.98117      114.93578       84.29120
H         51.08286      114.76882       85.69282
H         52.00353      112.66659       85.85393
H         52.33687      111.64894       84.44331
N         54.11784      115.15508       83.77118
C         55.48884      114.81644       84.16477
C         56.29456      114.26661       82.97753
O         55.72303      114.00809       81.92644
C         55.37273      113.83348       85.36147
C         56.64046      113.27179       85.94861
C         57.64891      114.10978       86.44763
C         56.79796      111.87746       86.04356
C         58.80914      113.55901       87.00410
C         57.94908      111.33121       86.61052
C         58.96370      112.16994       87.08584
O         60.08531      111.65217       87.62527
H         53.72501      114.74323       82.91283
H         56.00876      115.75562       84.45653
H         54.72588      112.99011       85.03291
H         54.83857      114.34794       86.18722
H         57.54049      115.18551       86.39745
H         56.02588      111.20765       85.68339
H         59.58749      114.21245       87.37553
H         58.05004      110.25517       86.67916
H         60.22717      110.69675       87.69369
N         57.66092      114.18483       83.04100
C         58.50094      113.86304       81.88720
C         59.46713      112.70748       82.18999
O         60.67044      112.91933       82.10261
C         59.31120      115.13045       81.49737
C         58.44147      116.35364       81.17819
C         59.30531      117.53085       80.81718
O         59.27219      118.64888       81.56766
O         60.04231      117.48011       79.84489
H         58.13987      114.46335       83.90760
H         57.88404      113.58591       81.00779
H         59.93348      114.89555       80.60435
H         59.98933      115.40192       82.33862
H         57.83266      116.61983       82.06885
H         57.75820      116.12841       80.33233
N         59.08260      111.45198       82.56311
C         57.71378      110.99586       82.77175
C         56.90449      110.92238       81.49034
O         57.44226      111.13982       80.41322
C         57.72491      109.62269       83.49142
C         58.27769      108.45604       82.65138
C         58.29247      107.20052       83.47374
O         57.51794      106.15549       83.12625
O         58.98700      107.13102       84.47620
H         59.84784      110.79366       82.77816
H         57.22467      111.70725       83.45825
H         56.69343      109.36230       83.81267
H         58.34147      109.72649       84.40784
H         59.31057      108.65732       82.29956
H         57.62805      108.30445       81.76323
N         55.58297      110.59165       81.55127
C         54.73118      110.45766       80.38840
H         53.88364      111.16935       80.47083
H         55.27243      110.65738       79.44039
H         54.32828      109.42336       80.35067
H         55.14912      110.41828       82.47032
Ca        57.38675      104.34890       84.47994
O         60.26053      103.57169       85.34453
H         60.99729      104.19323       85.57017
H         60.19161      103.61661       84.35764
O         57.66069      103.04611       87.50075
H         57.98290      102.27594       86.96819
H         58.22624      103.03967       88.31352
O         58.87538      106.04202       88.10577
H         59.74668      105.68995       88.41685
H         58.31672      106.07182       88.92270

Ca 1.0



