%chk=apoCaM-CA-Ng.loop3.water2.frame975.chk
%nprocshared=20
%mem=10GB
%nosave
#b3lyp/svp scf=(tight,noincore,xqc) Test 
#IOP(5/87=12) Density=Current Pop=(MK,readradii) iop(6/33=2) iop(6/42=6)

apoCaM-CA-Ng.loop3.water2.frame975 

   0  1 
C         58.42593       45.49990       60.81504
C         58.56409       46.83570       61.47300
O         58.10001       46.98893       62.59452
H         59.43790       45.08685       60.61988
H         57.87943       44.79388       61.47767
H         57.87372       45.60370       59.85971
N         59.20636       47.85513       60.83004
C         59.46408       49.14437       61.45395
C         58.70374       50.23946       60.71169
O         58.98271       50.47426       59.54409
C         60.98853       49.37614       61.48122
C         61.44163       50.51444       62.34547
O         62.62565       50.80916       62.36791
O         60.58431       51.20006       63.11962
H         59.55427       47.69767       59.87174
H         59.11461       49.09965       62.49066
H         61.34381       49.53417       60.44041
H         61.49316       48.47128       61.87485
N         57.66932       50.89790       61.31766
C         56.78753       51.83681       60.61849
C         57.46567       53.12677       60.17021
O         56.88302       53.83070       59.35736
C         55.51798       52.11692       61.46017
C         55.76428       52.90871       62.76249
C         54.50093       52.87807       63.64344
C         54.64550       53.63684       64.97366
N         54.73634       55.08449       64.78002
H         57.42859       50.62605       62.27791
H         56.44300       51.30795       59.70163
H         55.07869       51.12595       61.71180
H         54.76896       52.66837       60.85001
H         56.05299       53.94844       62.50125
H         56.59039       52.45412       63.34530
H         54.29465       51.81342       63.89345
H         53.62515       53.27750       63.08785
H         55.53040       53.26602       65.53626
H         53.74284       53.42366       65.58908
H         53.89162       55.42818       64.26703
H         54.76732       55.54988       65.71601
H         55.60176       55.33800       64.25423
N         58.67838       53.50890       60.65982
C         59.41242       54.68942       60.20377
C         60.76047       54.24268       59.65188
O         61.03838       54.55059       58.50073
C         59.42811       55.79302       61.29448
C         59.83612       55.33596       62.65999
O         58.97554       55.10216       63.49337
O         61.12047       55.13322       62.98207
H         59.10813       52.93562       61.39870
H         58.88316       55.17921       59.35432
H         58.36690       56.11839       61.38475
H         60.00776       56.68875       60.98395
N         61.59701       53.42759       60.36111
C         62.80568       52.83519       59.79720
C         64.06491       53.13778       60.58124
O         65.11812       52.68495       60.15609
H         61.32973       53.14241       61.30961
H         62.96992       53.17739       58.75302
H         62.67310       51.73302       59.76572
N         64.05476       53.90589       61.70776
C         65.25802       54.31323       62.41973
C         65.22282       53.86629       63.87076
O         64.21046       54.02926       64.53772
C         65.39611       55.84475       62.36641
C         65.52162       56.34645       60.94601
N         66.65686       56.94996       60.52384
O         64.58901       56.20850       60.16812
H         63.16694       54.28057       62.05470
H         66.17415       53.89937       61.94184
H         66.30866       56.12519       62.93756
H         64.52461       56.33560       62.85205
H         67.45968       57.07327       61.15751
H         66.73776       57.28716       59.55316
N         66.36196       53.39793       64.45166
C         66.48060       53.07225       65.86103
C         65.75470       51.80273       66.22826
O         66.02459       50.77151       65.62911
H         67.22300       53.34984       63.88609
H         66.15542       53.93781       66.48063
H         67.55433       52.89539       66.08658
N         64.88330       51.78644       67.27586
C         64.26771       50.55913       67.78010
C         63.27285       49.96265       66.79899
O         63.03459       50.53649       65.74487
C         63.55381       50.84103       69.12770
C         64.50921       51.31212       70.19634
C         64.36202       52.58467       70.77173
C         65.54667       50.47378       70.64054
C         65.24077       53.01261       71.77121
C         66.42359       50.90352       71.63983
C         66.27500       52.17218       72.20879
O         67.12740       52.57053       73.17422
H         64.71849       52.67013       67.78272
H         65.06640       49.80627       67.95772
H         63.06293       49.92792       69.52196
H         62.75565       51.59297       68.95722
H         63.56772       53.24590       70.44827
H         65.67459       49.48483       70.21860
H         65.11515       53.99609       72.20573
H         67.21750       50.24738       71.97409
H         67.05685       53.43847       73.59640
N         62.64085       48.79446       67.12328
C         61.59168       48.13031       66.35593
C         60.37018       49.03594       66.26152
O         60.46650       50.10800       65.69134
C         62.08424       47.63662       64.96500
C         60.98850       46.83605       64.20756
C         63.37285       46.80453       65.08952
C         60.50778       45.54837       64.89031
H         62.90225       48.33400       68.00839
H         61.31343       47.22639       66.93674
H         62.33256       48.51952       64.33877
H         61.37606       46.55607       63.20467
H         60.11056       47.49461       64.05815
H         64.18921       47.41548       65.52818
H         63.22197       45.91633       65.73665
H         63.70958       46.46883       64.08527
H         60.03885       45.75639       65.87251
H         59.73934       45.06260       64.25271
H         61.34033       44.82791       65.02246
N         59.19580       48.67919       66.85751
C         58.01155       49.53588       66.88010
C         57.03592       49.06175       67.93447
O         56.53269       47.95174       67.86088
C         57.27685       49.62104       65.52998
O         57.89962       50.53731       64.68476
H         59.17281       47.79784       67.39120
H         58.32277       50.56362       67.16083
H         56.25409       50.02711       65.68940
H         57.14413       48.62125       65.05401
H         58.63028       50.05255       64.25032
N         56.69655       49.93120       68.92771
C         55.70873       49.65836       69.96730
C         55.41718       50.93813       70.76324
O         56.18739       51.88208       70.67535
C         56.21282       48.54352       70.89490
H         57.13412       50.85996       68.89020
H         54.77135       49.36038       69.45077
H         55.48564       48.32451       71.69719
H         56.38450       47.60303       70.33232
H         57.17269       48.84717       71.36520
N         54.29515       51.11901       71.51735
C         53.21875       50.16627       71.73818
C         52.97970       50.06519       73.24184
O         52.86866       51.11633       73.86213
C         51.95890       50.66987       71.03690
H         54.17812       52.05443       71.94222
H         53.45367       49.19832       71.27400
H         52.15135       50.74726       69.94428
H         51.12698       49.95041       71.19306
H         51.65845       51.66842       71.41773
N         52.91285       48.90207       73.95091
C         52.86047       47.55161       73.39946
C         54.13889       46.77581       73.66164
O         54.21700       45.63102       73.23198
C         51.60656       46.82120       73.94126
C         51.63437       46.53867       75.45733
C         50.37147       45.85684       75.89827
O         49.29477       46.42057       75.77976
O         50.42204       44.62760       76.44554
H         52.85930       48.99413       74.97562
H         52.73159       47.57852       72.30479
H         51.50133       45.84898       73.41097
H         50.71380       47.43895       73.69533
H         51.72872       47.47362       76.04438
H         52.50246       45.88623       75.69319
N         55.19936       47.32534       74.31812
C         56.43382       46.59971       74.51582
H         57.16434       47.23561       75.05912
H         56.24426       45.68104       75.10978
H         56.86924       46.32437       73.53098
H         55.15402       48.29044       74.67657
Ca        61.36969       53.13222       63.92266
O         61.44482       53.19277       67.26898
H         60.80321       52.74151       67.87383
H         61.99966       53.75238       67.86854
O         58.73734       53.19813       65.92514
H         58.29144       53.02074       66.79082
H         57.99780       53.42857       65.30989

Ca 1.0



