%chk=apoCaM-CA-Ng.loop1.water5.frame403.chk
%nprocshared=20
%mem=10GB
%nosave
#b3lyp/svp scf=(tight,noincore,xqc) Test 
#IOP(5/87=12) Density=Current Pop=(MK,readradii) iop(6/33=2) iop(6/42=6)

apoCaM-CA-Ng.loop1.water5.frame403 

   0  1 
C        -19.79102       90.61251        1.67938
C        -20.05295       89.30796        2.37130
O        -19.29626       88.36531        2.18742
H        -18.89051       90.54483        1.03295
H        -20.66447       90.89253        1.05402
H        -19.62299       91.40266        2.44190
N        -21.13022       89.18676        3.19227
C        -21.42511       87.97958        3.95397
C        -22.38573       87.05708        3.21504
O        -22.76260       86.05719        3.80341
C        -22.04044       88.36064        5.32410
C        -21.12575       89.20125        6.17312
O        -20.77868       90.31136        5.80297
O        -20.71147       88.74210        7.36972
H        -21.75910       89.99907        3.29794
H        -20.49057       87.40882        4.15602
H        -22.26361       87.43034        5.89046
H        -22.99824       88.90626        5.17279
N        -22.83403       87.30152        1.94683
C        -23.86426       86.48583        1.30468
C        -23.36965       85.78815        0.04826
O        -22.74253       86.45684       -0.76166
C        -25.05293       87.37370        0.89444
C        -25.78726       87.98800        2.08846
C        -27.05344       88.70297        1.60182
C        -27.83730       89.31835        2.76396
N        -29.06844       89.94350        2.28065
H        -22.47777       88.11557        1.42518
H        -24.24128       85.73675        2.00837
H        -25.78038       86.74360        0.34321
H        -24.71518       88.17618        0.20154
H        -25.11727       88.69622        2.62258
H        -26.08752       87.17830        2.78725
H        -27.70554       87.96401        1.08376
H        -26.77793       89.50185        0.87900
H        -27.20653       90.08142        3.27113
H        -28.09670       88.52599        3.50124
H        -29.68558       89.22325        1.83858
H        -29.57588       90.37242        3.08748
H        -28.84552       90.68996        1.58268
N        -23.70657       84.49804       -0.29338
C        -24.48350       83.52250        0.48778
C        -25.83391       84.07756        0.93979
O        -26.05397       84.23401        2.13111
C        -23.64025       82.92655        1.63324
C        -22.41417       82.22590        1.12733
O        -22.14855       82.16643       -0.19165
O        -21.61748       81.75576        1.92352
H        -23.40451       84.17849       -1.22744
H        -24.70084       82.64111       -0.15470
H        -24.23967       82.17454        2.18687
H        -23.31173       83.72339        2.32400
N        -26.82416       84.38452        0.06162
C        -26.72249       84.09125       -1.35482
C        -27.99744       84.38947       -2.11453
O        -28.89330       85.02409       -1.57595
H        -27.69973       84.76768        0.44946
H        -26.55193       82.99838       -1.43525
H        -25.87555       84.63847       -1.81945
N        -28.20813       83.89713       -3.36809
C        -27.26432       83.03376       -4.07710
C        -27.66048       81.57654       -3.90529
O        -28.69977       81.30233       -3.31781
C        -27.14857       83.43605       -5.56564
C        -28.41010       83.21031       -6.36643
O        -28.40776       82.41186       -7.28962
O        -29.53430       83.90219       -6.10165
H        -29.14373       84.04625       -3.76949
H        -26.24854       83.14166       -3.64538
H        -26.33460       82.83378       -6.02402
H        -26.85220       84.50392       -5.64409
N        -26.86749       80.57660       -4.38928
C        -27.24431       79.17518       -4.29523
C        -27.32480       78.64993       -2.87605
O        -27.93035       77.60376       -2.69281
H        -25.99353       80.81461       -4.88137
H        -26.52966       78.53912       -4.85958
H        -28.24142       79.06634       -4.77442
N        -26.72306       79.28646       -1.82935
C        -26.84542       78.83882       -0.44515
C        -27.41180       79.98966        0.36401
O        -26.85534       81.07657        0.30974
C        -25.48916       78.36076        0.12387
C        -24.88376       77.24555       -0.74425
O        -25.71297       77.85967        1.41734
H        -26.15016       80.12482       -2.01083
H        -27.53164       77.96603       -0.36958
H        -24.77714       79.21622        0.16862
H        -24.83519       77.57406        1.78320
H        -24.66573       77.61754       -1.76621
H        -23.92763       76.89408       -0.29958
H        -25.57951       76.38134       -0.80819
N        -28.51168       79.82035        1.14960
C        -29.13969       80.91061        1.89602
C        -28.75966       80.80696        3.36755
O        -29.62985       80.75991        4.22546
C        -30.68910       80.93288        1.64183
C        -31.38108       79.58868        2.03504
C        -30.98472       81.28760        0.17239
C        -32.90855       79.65462        2.04899
H        -28.88773       78.86794        1.25110
H        -28.72590       81.89224        1.57186
H        -31.10908       81.74808        2.27244
H        -31.08321       79.28765        3.05758
H        -31.07744       78.77317        1.34604
H        -30.51168       82.25640       -0.09319
H        -30.59762       80.50180       -0.51101
H        -32.07429       81.40119       -0.00113
H        -33.32177       79.86086        1.04245
H        -33.31037       78.67375        2.38386
H        -33.25169       80.43387        2.76186
N        -27.44105       80.75877        3.72448
C        -26.99494       80.53977        5.10226
C        -26.03711       81.60804        5.62681
O        -25.72168       81.56084        6.80764
C        -26.32975       79.14220        5.20002
C        -25.00538       79.03621        4.41929
O        -27.22937       78.14367        4.78248
H        -26.73617       80.79533        2.97500
H        -27.87479       80.54102        5.78096
H        -26.08709       78.94094        6.26521
H        -27.32407       78.20526        3.79526
H        -25.14444       79.27279        3.34980
H        -24.25482       79.74211        4.81593
H        -24.59086       78.01124        4.51107
N        -25.48923       82.55623        4.81274
C        -24.49836       83.55579        5.22119
C        -23.19614       82.89481        5.69475
O        -23.15219       81.68305        5.83855
C        -25.10482       84.56284        6.23668
C        -26.36694       85.21896        5.65524
O        -24.17334       85.57101        6.52875
H        -25.75955       82.56570        3.82604
H        -24.23933       84.13510        4.31564
H        -25.36668       84.02265        7.17296
H        -24.50004       86.04802        7.33583
H        -26.12048       85.75965        4.71725
H        -27.14714       84.46016        5.43701
H        -26.78876       85.94626        6.38020
N        -22.07066       83.63508        5.91389
C        -20.80122       83.06664        6.36283
C        -19.69092       83.24071        5.32745
O        -18.58422       82.79836        5.60635
C        -20.42122       83.71792        7.71574
C        -21.41822       83.38389        8.84885
C        -21.30367       81.91896        9.32006
C        -22.35722       81.51649       10.36684
N        -22.29924       82.33034       11.58141
H        -22.09864       84.65171        5.76296
H        -20.87854       81.97071        6.50248
H        -20.39823       84.82070        7.56894
H        -19.40623       83.40268        8.04325
H        -22.45448       83.61349        8.51978
H        -21.18008       84.03857        9.71396
H        -20.28521       81.75451        9.73688
H        -21.44036       81.22570        8.46746
H        -22.17766       80.45137       10.63747
H        -23.37348       81.58751        9.92042
H        -22.58211       83.31464       11.37493
H        -22.97413       81.94018       12.27873
H        -21.33782       82.30739       11.99143
N        -19.89841       83.81574        4.10252
C        -18.84533       83.92140        3.09071
C        -17.68263       84.74278        3.60732
O        -17.86434       85.90601        3.93939
C        -19.40554       84.51938        1.77578
C        -18.34477       84.83810        0.69558
C        -17.40276       83.70703        0.34507
O        -16.20703       83.84369        0.54681
O        -17.83640       82.56393       -0.22032
H        -20.83683       84.16384        3.86140
H        -18.48745       82.89587        2.84831
H        -19.93843       85.47084        1.99684
H        -20.15386       83.81486        1.37025
H        -17.73518       85.69046        1.06659
H        -18.86384       85.18415       -0.22414
N        -16.44162       84.18098        3.67036
C        -15.25573       84.88807        4.10174
H        -14.51481       84.88878        3.27406
H        -15.46927       85.93944        4.38358
H        -14.81480       84.36453        4.97515
H        -16.31761       83.19866        3.38089
Ca       -19.99113       82.26145       -0.70648
O        -19.76495       79.84729       -4.34520
H        -20.41382       79.84282       -5.09293
H        -18.88920       80.01298       -4.77659
O        -17.64214       80.11029       -2.09350
H        -17.27462       79.30451       -2.53577
H        -16.88056       80.74177       -2.05713
O        -19.24402       79.60722        0.56401
H        -19.26537       78.85637        1.20808
H        -19.19018       80.41659        1.13160
O        -21.55263       79.08252       -1.87242
H        -21.92911       78.38486       -2.46592
H        -21.76582       78.77153       -0.95692
O        -18.47275       82.92534       -3.60678
H        -18.09641       83.15485       -4.49336
H        -17.78954       83.23482       -2.96049

Ca 1.0



