%chk=apoCaM-CA-Ng.loop4.water6.frame588.chk
%nprocshared=20
%mem=10GB
%nosave
#b3lyp/svp scf=(tight,noincore,xqc) Test 
#IOP(5/87=12) Density=Current Pop=(MK,readradii) iop(6/33=2) iop(6/42=6)

apoCaM-CA-Ng.loop4.water6.frame588 

   -3  1 
C         48.81005      113.41777      -22.58240
C         48.16009      113.70619      -23.90450
O         48.34364      112.92544      -24.81540
H         49.57004      114.19074      -22.35369
H         48.04647      113.39167      -21.77783
H         49.32042      112.42929      -22.61077
N         47.35539      114.79556      -24.07160
C         46.66426      115.16468      -25.31746
C         45.75813      114.07327      -25.86884
O         45.53729      114.00681      -27.07208
C         47.63572      115.62385      -26.39947
C         48.55515      116.66589      -25.89076
O         48.14682      117.69878      -25.38236
O         49.85649      116.45899      -26.08333
H         47.20012      115.40382      -23.25306
H         46.01878      116.04214      -25.09136
H         47.06733      116.04715      -27.25594
H         48.24243      114.76885      -26.77531
N         45.21471      113.16225      -25.03133
C         44.37460      112.05737      -25.47707
C         43.06186      112.53611      -26.09759
O         42.52119      113.51874      -25.60872
C         44.07206      111.06219      -24.31325
C         43.58472      111.78185      -23.01399
C         45.31363      110.19207      -24.06174
C         43.09978      110.84421      -21.91769
H         45.46042      113.25355      -24.04437
H         44.96580      111.53141      -26.24430
H         43.27259      110.37254      -24.66501
H         42.74875      112.46900      -23.25921
H         44.39396      112.37654      -22.54642
H         45.58716      109.65968      -24.99972
H         46.17815      110.80904      -23.73997
H         45.10966      109.41020      -23.30574
H         42.78695      111.45492      -21.04279
H         42.23298      110.25424      -22.27524
H         43.91049      110.16934      -21.57819
N         42.42324      111.88869      -27.12749
C         42.90894      110.70534      -27.84830
C         43.16226      110.99096      -29.32185
O         43.92956      110.24963      -29.91809
C         41.96748      109.48927      -27.66182
C         40.55987      109.63873      -28.18918
O         40.18914      110.65290      -28.75728
O         39.69209      108.62119      -28.03152
H         41.51277      112.27545      -27.41413
H         43.87179      110.35970      -27.44674
H         41.90353      109.26348      -26.57615
H         42.41851      108.60376      -28.16371
N         42.56530      112.02527      -29.98456
C         42.75526      112.28849      -31.39971
C         42.27711      111.13018      -32.25325
O         41.12354      110.73645      -32.15397
H         41.93249      112.66382      -29.48658
H         43.82867      112.50963      -31.58941
H         42.17351      113.19212      -31.68178
N         43.13470      110.55654      -33.14009
C         42.80366      109.43465      -34.02273
C         42.52330      108.11151      -33.29927
O         42.12199      107.17057      -33.97123
C         43.93468      109.23519      -35.07380
C         45.34296      109.30159      -34.51039
O         46.12194      110.13713      -34.93889
O         45.74370      108.51073      -33.50460
H         44.06747      110.98497      -33.21245
H         41.87446      109.68630      -34.58406
H         43.85532      110.05540      -35.82015
H         43.77936      108.28202      -35.62490
N         42.71604      107.94027      -31.96054
C         42.48959      106.67851      -31.26064
C         43.46474      105.56812      -31.63691
O         43.34083      104.47837      -31.09686
H         43.03134      108.73170      -31.40127
H         41.44309      106.34860      -31.42898
H         42.62083      106.85537      -30.16977
N         44.49043      105.78489      -32.51107
C         45.51599      104.83310      -32.91734
C         46.43043      104.38431      -31.77910
O         47.30878      103.57798      -32.03432
C         44.91430      103.65457      -33.70942
C         44.05833      104.18280      -34.87842
C         43.62406      103.12520      -35.85768
N         42.87936      103.48214      -36.92960
O         43.94981      101.95672      -35.70745
H         44.56439      106.69861      -32.94317
H         46.18809      105.35647      -33.63722
H         44.30573      102.98936      -33.06093
H         45.76251      103.06398      -34.12307
H         44.64428      104.93457      -35.45045
H         43.15199      104.67767      -34.46825
H         42.60187      104.46541      -37.07018
H         42.58430      102.77987      -37.62327
N         46.32127      104.90600      -30.51911
C         47.19856      104.52993      -29.40928
C         47.99818      105.70503      -28.88356
O         48.84881      105.46217      -28.02771
C         46.37024      103.95078      -28.22269
C         45.26004      104.91197      -27.73999
C         45.76637      102.59103      -28.56722
H         45.61040      105.61549      -30.32921
H         47.94107      103.77350      -29.74207
H         47.06759      103.77968      -27.37113
H         45.67215      105.91101      -27.48591
H         44.47297      105.04293      -28.51239
H         44.76670      104.50611      -26.83292
H         45.03040      102.68090      -29.39245
H         46.57176      101.88766      -28.86667
H         45.25977      102.17293      -27.67047
N         47.76075      106.99184      -29.25020
C         48.36653      108.11691      -28.56538
C         49.15640      108.99911      -29.51448
O         48.72358      109.22806      -30.64080
C         47.25727      108.91003      -27.85796
C         47.85802      110.01201      -27.03731
N         47.64416      111.29757      -27.38150
O         48.57687      109.74255      -26.08385
H         47.04935      107.21149      -29.96717
H         49.05521      107.76628      -27.76295
H         46.66845      108.24749      -27.18506
H         46.56287      109.32228      -28.62209
H         47.05230      111.54077      -28.18606
H         48.10409      112.05522      -26.87596
N         50.31859      109.56277      -29.08911
C         51.15205      110.46873      -29.87643
C         52.40377      110.79729      -29.08369
O         52.26703      111.14425      -27.91398
C         50.40512      111.78941      -30.20661
C         51.19931      112.65051      -31.16979
C         51.67990      113.91227      -30.78393
C         51.45696      112.19519      -32.47590
C         52.41356      114.69764      -31.68223
C         52.18637      112.98179      -33.37274
C         52.67024      114.23279      -32.97998
O         53.37621      114.97691      -33.85603
H         50.62065      109.33440      -28.12569
H         51.43052      109.95798      -30.82317
H         50.20092      112.33578      -29.25790
H         49.42530      111.59125      -30.68493
H         51.48915      114.28441      -29.78836
H         51.08831      111.23172      -32.80354
H         52.78150      115.66736      -31.37251
H         52.37494      112.61799      -34.37528
H         53.73429      115.84596      -33.62478
N         53.64759      110.74530      -29.64177
C         54.85346      111.05799      -28.88380
C         55.43180      112.38237      -29.35674
O         56.04454      112.40463      -30.41652
C         55.86332      109.88974      -28.96104
C         57.19572      110.20059      -28.25446
C         58.08012      108.99014      -28.19660
O         59.15374      108.97999      -28.77720
O         57.70616      107.92045      -27.46846
H         53.73756      110.52396      -30.64717
H         54.59950      111.14645      -27.81865
H         56.08312      109.64260      -30.02396
H         55.38491      109.00201      -28.49178
H         57.02111      110.53631      -27.21374
H         57.71566      111.01407      -28.80746
N         55.25961      113.55663      -28.67002
C         54.39474      113.71756      -27.49179
C         54.92011      113.02056      -26.25286
O         56.07762      112.63141      -26.19610
C         54.21395      115.20870      -27.13246
C         53.42863      115.99326      -28.18661
C         53.64622      117.47377      -27.99185
O         54.22723      118.09173      -28.86638
O         53.28862      118.14957      -26.88123
H         55.69175      114.40133      -29.07682
H         53.40072      113.29830      -27.74122
H         55.23092      115.64024      -27.00316
H         53.66741      115.32600      -26.17481
H         52.35459      115.70449      -28.16230
H         53.82531      115.73943      -29.19130
N         54.07204      112.83689      -25.20292
C         54.47107      112.21068      -23.96493
H         55.26923      112.81113      -23.48146
H         53.59835      112.16270      -23.27769
H         54.83215      111.17813      -24.15379
H         53.09242      113.14755      -25.29099
Ca        51.43379      117.91443      -25.70475
O         49.58174      119.74501      -27.21218
H         48.74689      119.21879      -27.27556
H         49.39023      120.56291      -27.73399
O         53.28431      119.24810      -23.57194
H         53.56001      118.47497      -23.01976
H         53.89339      119.97889      -23.29754
O         49.88078      120.61760      -23.58338
H         49.86253      121.58874      -23.77592
H         49.94618      120.56188      -22.59681
O         52.98749      120.77731      -26.33847
H         53.65906      120.84382      -25.61559
H         53.51362      120.49174      -27.12690
O         49.72105      117.51060      -22.65677
H         49.38401      117.80147      -21.77270
H         49.62762      116.52597      -22.64465
O         52.26408      116.11341      -23.86257
H         52.04827      115.38896      -24.50188
H         53.15439      115.88222      -23.50092

Ca 1.0



