%chk=apoCaM-CA-Ng.loop3.water4.frame197.chk
%nprocshared=20
%mem=10GB
%nosave
#b3lyp/svp scf=(tight,noincore,xqc) Test 
#IOP(5/87=12) Density=Current Pop=(MK,readradii) iop(6/33=2) iop(6/42=6)

apoCaM-CA-Ng.loop3.water4.frame197 

   0  1 
C        -25.58044       31.67708       16.51414
C        -26.92871       32.05350       15.97512
O        -27.44107       33.09598       16.34817
H        -24.84545       32.46713       16.25126
H        -25.63301       31.57948       17.61812
H        -25.22730       30.71436       16.08749
N        -27.57019       31.24491       15.08727
C        -28.85832       31.55539       14.47814
C        -29.94546       31.70304       15.53334
O        -30.61274       32.72765       15.59426
C        -28.75215       32.78686       13.54986
C        -27.67591       32.60531       12.51464
O        -26.63172       33.45331       12.47195
O        -27.73903       31.68775       11.71217
H        -27.12141       30.35788       14.81139
H        -29.14755       30.69395       13.83424
H        -28.53669       33.69486       14.14549
H        -29.72153       32.94768       13.02964
N        -30.20391       30.66597       16.37735
C        -31.33085       30.65432       17.31060
C        -31.16489       31.60981       18.50087
O        -32.07553       31.70097       19.31063
C        -31.52553       29.20808       17.82693
C        -32.93613       28.94911       18.37490
C        -33.07663       27.50644       18.86316
C        -34.53283       27.20739       19.23617
N        -34.67210       25.84431       19.74305
H        -29.63318       29.81237       16.26869
H        -32.23386       30.92897       16.72114
H        -30.73608       28.96565       18.57415
H        -31.40906       28.50830       16.96938
H        -33.65738       29.13053       17.54716
H        -33.18962       29.62075       19.21705
H        -32.41588       27.35841       19.74606
H        -32.76478       26.80242       18.06087
H        -35.17009       27.32948       18.33101
H        -34.88233       27.92547       20.01079
H        -35.68023       25.65908       19.94832
H        -34.33880       25.15700       19.02850
H        -34.11949       25.73540       20.62427
N        -30.02019       32.31905       18.70604
C        -29.77133       33.10611       19.91149
C        -30.82142       34.20074       20.11469
O        -31.11010       34.93410       19.18009
C        -28.35960       33.69990       19.84451
C        -28.00864       34.33036       21.14666
O        -27.92373       33.67748       22.17415
O        -27.86866       35.65096       21.16824
H        -29.26128       32.24929       18.01630
H        -29.79182       32.41111       20.78035
H        -28.32585       34.45797       19.02818
H        -27.60153       32.91858       19.62572
N        -31.45907       34.33087       21.31769
C        -32.59103       35.21963       21.53870
C        -32.34139       36.71779       21.44426
O        -33.34173       37.41488       21.34874
H        -31.19878       33.69829       22.08912
H        -33.04259       35.02076       22.53526
H        -33.36140       34.95290       20.78145
N        -31.10226       37.30712       21.47819
C        -30.92922       38.75241       21.25322
C        -30.10711       39.04324       20.00203
O        -29.86888       40.20886       19.71105
C        -30.42260       39.53849       22.49479
C        -28.94070       39.47673       22.93411
N        -28.46091       40.81415       23.27114
O        -28.09185       38.95165       21.97413
H        -30.26831       36.72291       21.62804
H        -31.92230       39.21155       21.05648
H        -31.05896       39.31219       23.37830
H        -30.63073       40.60393       22.25072
H        -29.00996       41.21058       24.06316
H        -27.45949       40.75511       23.55102
N        -29.68832       38.04172       19.17996
C        -28.96481       38.25749       17.94525
C        -27.53421       38.66318       18.18023
O        -27.10090       39.67380       17.65000
H        -29.93905       37.06937       19.39018
H        -29.50852       38.98310       17.30128
H        -28.92073       37.29162       17.39559
N        -26.72398       37.85390       18.91847
C        -25.28099       38.02223       19.02433
C        -24.85331       38.27738       20.43865
O        -25.05956       37.43418       21.29759
C        -24.59907       36.73847       18.52096
C        -24.83640       36.61989       17.04899
C        -24.04220       37.36211       16.16467
C        -25.87810       35.82815       16.55272
C        -24.28371       37.31084       14.79313
C        -26.12869       35.79038       15.17912
C        -25.33208       36.53294       14.29485
O        -25.57075       36.51805       12.96937
H        -27.14125       37.02898       19.36495
H        -24.93754       38.87756       18.40370
H        -25.02034       35.86421       19.07002
H        -23.50289       36.74280       18.71286
H        -23.23875       37.98242       16.54325
H        -26.50843       35.27072       17.23375
H        -23.66382       37.88839       14.12071
H        -26.94614       35.19627       14.80368
H        -26.30764       36.02334       12.58625
N        -24.19738       39.43630       20.72986
C        -23.62488       39.71601       22.03050
C        -24.42445       40.82314       22.66291
O        -25.02846       40.58083       23.69881
C        -22.11327       40.06843       21.88993
C        -21.32244       39.01716       21.06439
C        -21.46482       40.30006       23.26586
C        -21.32168       37.59855       21.63745
H        -24.08023       40.14841       19.99449
H        -23.70516       38.82457       22.68096
H        -22.02157       41.01881       21.32016
H        -20.26858       39.35807       20.96543
H        -21.74375       38.97090       20.03642
H        -21.52776       39.39109       23.89887
H        -20.39729       40.58177       23.14239
H        -21.97225       41.12874       23.80059
H        -20.73401       36.93817       20.96512
H        -20.85359       37.57287       22.64150
H        -22.35073       37.19163       21.69657
N        -24.48922       42.06254       22.10049
C        -25.25354       43.15582       22.68729
C        -24.78010       43.38268       24.10942
O        -25.58691       43.27641       25.01854
C        -25.12566       44.43197       21.83399
O        -25.53374       44.19445       20.51158
H        -23.96462       42.23626       21.22818
H        -26.33023       42.87216       22.70604
H        -24.06867       44.77071       21.80763
H        -25.73033       45.25814       22.26906
H        -26.49375       43.94468       20.54237
N        -23.45806       43.62869       24.35246
C        -22.78704       43.65779       25.65396
C        -23.54652       42.98260       26.78968
O        -23.75864       43.59386       27.83299
C        -22.36609       45.09414       25.97265
H        -22.83878       43.75334       23.53822
H        -21.86459       43.04485       25.54828
H        -23.26524       45.73661       26.09017
H        -21.77105       45.12410       26.91020
H        -21.74176       45.50037       25.14891
N        -23.97566       41.69606       26.65059
C        -24.66078       40.94987       27.69803
C        -24.14467       39.52771       27.78523
O        -23.50001       39.06572       26.84777
C        -26.15990       40.89627       27.38781
H        -23.83518       41.23909       25.73638
H        -24.51937       41.45567       28.67916
H        -26.57210       41.92430       27.31926
H        -26.33792       40.37695       26.41966
H        -26.70776       40.35763       28.18903
N        -24.43264       38.74856       28.86777
C        -24.16727       37.31178       28.93988
C        -22.69504       36.93639       28.75603
O        -22.41696       35.74825       28.66646
C        -25.08007       36.57887       27.92407
C        -26.56655       36.85768       28.22423
C        -27.48011       36.18557       27.24480
O        -27.43162       36.47457       26.06016
O        -28.38744       35.28839       27.67561
H        -24.93308       39.17660       29.66427
H        -24.46628       36.93484       29.94294
H        -24.91254       35.48099       27.98876
H        -24.83517       36.89974       26.89437
H        -26.77343       37.94594       28.18015
H        -26.80216       36.49797       29.24976
N        -21.69723       37.86943       28.72198
C        -20.30179       37.53878       28.50775
H        -19.70757       37.85091       29.39128
H        -20.14008       36.45389       28.33669
H        -19.93211       38.08655       27.61505
H        -21.90929       38.86529       28.86450
Ca       -27.55224       36.97379       22.88926
O        -24.99442       37.43078       24.40812
H        -25.60028       38.17381       24.65573
H        -24.09803       37.73416       24.69798
O        -29.92109       35.41816       24.04849
H        -30.27711       34.80835       24.74190
H        -30.04489       36.32564       24.42495
O        -26.86311       33.65683       24.95699
H        -26.87281       32.70832       24.67439
H        -27.36242       33.66144       25.81047
O        -24.80027       34.59396       22.67334
H        -24.95070       33.65934       22.96317
H        -24.13456       34.52193       21.94412

Ca 1.0



