%chk=apoCaM-CA-Ng.loop2.water6.frame648.chk
%nprocshared=20
%mem=10GB
%nosave
#b3lyp/svp scf=(tight,noincore,xqc) Test 
#IOP(5/87=12) Density=Current Pop=(MK,readradii) iop(6/33=2) iop(6/42=6)

apoCaM-CA-Ng.loop2.water6.frame648 

   -2  1 
C        -23.95699       43.96771       31.48328
C        -24.79088       44.78741       32.42841
O        -25.11208       44.30482       33.50457
H        -22.99065       43.70443       31.96120
H        -24.50107       43.03510       31.22313
H        -23.74616       44.51924       30.54215
N        -25.19652       46.04022       32.08041
C        -26.04573       46.87233       32.92670
C        -25.35066       47.21811       34.23320
O        -24.26448       47.78169       34.20024
C        -26.42743       48.16439       32.17527
C        -27.37497       49.01481       32.97637
O        -27.06579       50.15375       33.28735
O        -28.57158       48.52335       33.35204
H        -24.91408       46.40328       31.15620
H        -26.98920       46.31785       33.12881
H        -26.93074       47.89578       31.22122
H        -25.50906       48.74387       31.93065
N        -25.95296       46.94653       35.42928
C        -25.35535       47.31123       36.71196
C        -24.06490       46.54036       36.94158
O        -23.91037       45.48618       36.34011
C        -26.34336       47.03952       37.85333
H        -26.88548       46.50532       35.42033
H        -25.14597       48.40265       36.67336
H        -26.60342       45.96024       37.89065
H        -25.92265       47.33357       38.83611
H        -27.27325       47.62485       37.68723
N        -23.04018       46.99894       37.71967
C        -23.04353       48.25349       38.47385
C        -22.30077       49.32978       37.70539
O        -21.79508       49.05036       36.62909
C        -22.44782       48.04160       39.89087
C        -20.96251       47.75922       39.90795
O        -20.12571       48.61923       40.51987
O        -20.50777       46.75017       39.39645
H        -22.17175       46.44638       37.70488
H        -24.07834       48.61736       38.61001
H        -22.98667       47.21848       40.40720
H        -22.61487       48.96469       40.48539
N        -22.19197       50.59456       38.21103
C        -21.43705       51.64487       37.54090
C        -20.22539       52.02072       38.36824
O        -20.10954       51.53438       39.48374
H        -22.62181       50.81482       39.12098
H        -22.09205       52.52272       37.37600
H        -21.09254       51.28498       36.55731
N        -19.22057       52.82969       37.91498
C        -19.09123       53.46555       36.60457
C        -19.13525       52.45971       35.45650
O        -19.73733       52.73773       34.42952
C        -20.08263       54.63732       36.41675
C        -19.96697       55.66181       37.51959
N        -21.04107       55.98956       38.27614
O        -18.89496       56.21235       37.72257
H        -18.42317       52.97076       38.55705
H        -18.07022       53.90883       36.57556
H        -21.12107       54.25746       36.35780
H        -19.85944       55.14747       35.45504
H        -21.95816       55.54829       38.11542
H        -20.95879       56.69711       39.02151
N        -18.54243       51.23952       35.59245
C        -18.56282       50.20535       34.57030
C        -17.15794       49.70336       34.35220
O        -16.32573       50.45022       33.85816
H        -18.09932       51.00002       36.49186
H        -19.00814       50.54878       33.61130
H        -19.19838       49.37821       34.94967
N        -16.80878       48.46311       34.79966
C        -15.44321       47.95198       34.81361
C        -15.39844       46.49678       34.36433
O        -16.14180       45.67444       34.87991
C        -14.83802       48.10672       36.22849
C        -14.51788       49.57818       36.54856
O        -15.66379       47.53743       37.21493
H        -17.52659       47.90161       35.27986
H        -14.78923       48.54506       34.13680
H        -13.85976       47.57921       36.25120
H        -16.36072       48.20139       37.46346
H        -15.43295       50.20612       36.53910
H        -14.04466       49.65122       37.54936
H        -13.80406       49.98027       35.79666
N        -14.50055       46.11396       33.41308
C        -14.37122       44.75012       32.89980
C        -13.96655       43.77150       34.00188
O        -12.86771       43.88392       34.52763
C        -13.30588       44.70926       31.74580
C        -13.00677       43.25876       31.26326
C        -13.76005       45.58830       30.55857
C        -11.84072       43.17354       30.27349
H        -13.87584       46.84110       33.03636
H        -15.34912       44.43860       32.47338
H        -12.35734       45.12563       32.15500
H        -13.91466       42.80420       30.81406
H        -12.70085       42.63153       32.12633
H        -13.96147       46.63352       30.86283
H        -12.97552       45.64900       29.77943
H        -14.68593       45.17818       30.10527
H        -10.92366       43.61141       30.72468
H        -11.63690       42.10882       30.03309
H        -12.06610       43.69342       29.32215
N        -14.78578       42.72618       34.32114
C        -14.38531       41.57892       35.13000
C        -14.47029       40.27943       34.31013
O        -14.17681       39.23407       34.87369
C        -15.19314       41.51580       36.44869
C        -16.67054       41.37364       36.24784
O        -17.49625       42.35557       36.64971
O        -17.12733       40.38911       35.69550
H        -15.72600       42.69892       33.91481
H        -13.32206       41.68114       35.43999
H        -14.99911       42.45510       37.01017
H        -14.83093       40.67074       37.07403
N        -14.77768       40.26799       32.96834
C        -14.68652       39.06934       32.13355
C        -15.89484       38.94790       31.18563
O        -15.69031       38.94619       29.97843
C        -13.35803       39.18692       31.34039
C        -12.93986       38.00522       30.48462
C        -11.78294       38.15179       29.69924
C        -13.64015       36.78064       30.43721
C        -11.33866       37.10982       28.88159
C        -13.18933       35.74026       29.61861
C        -12.04142       35.90475       28.84091
H        -14.94685       41.15470       32.47401
H        -14.62191       38.16009       32.76854
H        -12.53203       39.36916       32.06251
H        -13.43432       40.08468       30.68570
H        -11.22615       39.08126       29.71654
H        -14.53036       36.61227       31.02541
H        -10.44889       37.23823       28.27892
H        -13.73159       34.80408       29.58750
H        -11.69579       35.09820       28.20754
N        -17.18703       38.83663       31.62611
C        -18.34947       38.73171       30.74406
C        -18.41338       39.81292       29.67815
O        -18.99933       39.58587       28.62936
C        -19.53215       38.91363       31.70291
C        -19.00764       38.27647       32.96726
C        -17.57789       38.81120       33.01435
H        -18.33407       37.72096       30.27749
H        -19.66017       39.99791       31.93424
H        -20.49928       38.51925       31.32390
H        -19.60458       38.47308       33.88298
H        -18.96953       37.17713       32.79045
H        -17.53955       39.85391       33.38676
H        -16.95804       38.13034       33.63563
N        -17.84107       41.02754       29.90428
C        -17.82702       42.11559       28.94313
C        -17.02233       41.67734       27.73694
O        -17.55954       41.65376       26.63804
C        -17.22414       43.42437       29.53276
C        -18.11344       44.17049       30.56394
C        -18.15292       43.63602       31.97170
O        -18.90660       44.24185       32.90459
O        -17.44548       42.71485       32.32168
H        -17.35943       41.15414       30.79010
H        -18.86845       42.34990       28.62682
H        -17.14037       44.12689       28.67402
H        -16.19830       43.26871       29.93026
H        -19.14489       44.24614       30.16173
H        -17.71075       45.20179       30.66464
N        -15.72522       41.28757       27.87787
C        -14.93483       40.82144       26.76063
H        -13.92085       40.53185       27.11010
H        -15.41711       39.93164       26.30166
H        -14.83817       41.62550       26.00130
H        -15.28753       41.30320       28.81145
Ca       -18.46521       43.52324       34.99244
O        -16.70044       44.77313       37.84051
H        -17.27295       45.47508       37.44094
H        -15.80559       44.91769       37.44184
O        -20.07090       43.72033       37.66572
H        -21.01088       43.63554       37.96397
H        -19.73206       44.52274       38.13522
O        -19.62964       46.67634       36.34773
H        -19.22003       47.33630       36.96143
H        -20.18264       47.22050       35.73409
O        -20.62319       41.32421       34.91122
H        -19.79869       41.00098       35.35346
H        -20.32524       41.61377       34.01235
O        -19.43095       47.08489       33.12825
H        -18.81702       46.88808       32.37693
H        -20.24560       46.55711       32.93166
O        -21.45781       44.49858       34.73974
H        -21.89457       43.97613       35.45829
H        -21.70844       45.43792       34.92510

Ca 1.0



