%chk=apoCaM-CA-Ng.loop1.water2.frame1260.chk
%nprocshared=20
%mem=10GB
%nosave
#b3lyp/svp scf=(tight,noincore,xqc) Test 
#IOP(5/87=12) Density=Current Pop=(MK,readradii) iop(6/33=2) iop(6/42=6)

apoCaM-CA-Ng.loop1.water2.frame1260 

   0  1 
C         24.10285       38.10936       23.40157
C         25.45735       37.82070       23.97650
O         26.19877       38.75295       24.25456
H         23.32132       37.72779       24.09002
H         23.95714       39.20188       23.25967
H         23.99874       37.60888       22.41505
N         25.86232       36.52950       24.14043
C         27.17949       36.15511       24.64090
C         28.00265       35.68965       23.46054
O         28.42741       34.54441       23.39045
C         27.05844       35.07824       25.73468
C         26.20400       35.53303       26.88224
O         25.19513       34.91148       27.17584
O         26.54847       36.62036       27.59776
H         25.23113       35.77473       23.82928
H         27.70801       37.03423       25.07587
H         28.07259       34.83354       26.12018
H         26.61986       34.15550       25.29431
N         28.26054       36.58907       22.47784
C         28.96759       36.29026       21.24363
C         30.41957       36.71489       21.33838
O         31.25622       35.85016       21.11567
C         28.22141       36.87298       20.02842
C         26.79534       36.30200       19.96671
C         25.99682       36.84952       18.78391
C         24.56452       36.29646       18.82059
N         23.75868       36.84351       17.73187
H         27.89169       37.53625       22.61296
H         28.98391       35.18736       21.08252
H         28.76753       36.59856       19.09859
H         28.17561       37.97980       20.08704
H         26.25689       36.57258       20.90087
H         26.84468       35.19258       19.89393
H         26.49002       36.56195       17.82925
H         25.96064       37.95850       18.85141
H         24.09020       36.56707       19.79095
H         24.58888       35.18620       18.74239
H         22.78874       36.45894       17.80142
H         23.71419       37.88566       17.80962
H         24.16862       36.57234       16.80913
N         30.87101       37.94291       21.72733
C         30.09791       39.11681       22.13379
C         30.08762       39.21095       23.66202
O         30.59492       38.31340       24.32024
C         30.59486       40.37095       21.36833
C         32.08340       40.42827       21.15163
O         32.95648       40.49898       22.17089
O         32.51418       40.37505       20.01018
H         31.89418       38.01575       21.84331
H         29.03736       39.04865       21.85874
H         30.21976       41.30812       21.82911
H         30.14456       40.32055       20.35078
N         29.44740       40.23341       24.30011
C         29.23264       40.28459       25.74356
C         30.51664       40.25725       26.59705
O         31.36041       41.29597       26.23156
H         29.02663       40.98678       23.73701
H         28.60186       39.41978       26.04001
H         28.66640       41.21192       25.98173
N         30.14438       40.40801       28.01543
C         31.23927       40.75202       28.96029
C         30.62476       41.28363       30.25349
O         29.45965       40.99877       30.49573
C         32.10885       39.50948       29.28469
C         32.81633       38.95034       28.08557
O         32.56867       37.68720       27.68894
O         33.63028       39.62738       27.47784
H         29.62007       39.56014       28.33585
H         31.85296       41.57068       28.53482
H         31.45775       38.71963       29.72118
H         32.88095       39.75258       30.03900
N         31.30638       42.02839       31.17855
C         32.66096       42.54767       31.05563
C         32.73675       43.72429       30.11038
O         32.03910       44.70390       30.33558
H         30.81224       42.25828       32.05559
H         33.37754       41.74494       30.80268
H         32.96834       42.95160       32.04509
N         33.58510       43.70855       29.04433
C         33.74201       44.82688       28.11516
C         33.11410       44.45789       26.79185
O         33.07339       43.28360       26.46544
C         35.23700       45.22302       27.99747
C         35.47795       46.37567       27.01264
O         35.99932       44.11325       27.60114
H         34.12916       42.84998       28.86566
H         33.18891       45.71687       28.48976
H         35.55925       45.55200       29.01389
H         36.92878       44.27315       27.91326
H         35.20345       46.07586       25.97842
H         34.88883       47.26955       27.30497
H         36.55502       46.64867       27.01045
N         32.52656       45.42239       26.02298
C         31.75055       45.18812       24.80767
C         32.59495       44.50373       23.74535
O         32.92077       43.33980       23.89745
C         30.43928       44.39823       25.12429
C         29.59808       45.14563       26.19321
C         29.61724       44.13412       23.84679
C         28.41055       44.33597       26.72159
H         32.59625       46.40251       26.33800
H         31.44271       46.18421       24.41819
H         30.71982       43.42274       25.54353
H         29.23851       46.11367       25.78227
H         30.23388       45.36145       27.07816
H         29.29621       45.08981       23.38288
H         30.21200       43.55850       23.10757
H         28.72196       43.51840       24.06454
H         27.88867       44.92139       27.50786
H         27.67314       44.11169       25.92618
H         28.76784       43.38673       27.17526
N         32.97528       45.17423       22.62490
C         33.70737       44.53502       21.53351
C         35.14216       45.04138       21.41145
O         35.85816       44.54746       20.54901
C         32.90601       44.67815       20.21348
C         32.73849       46.13292       19.75739
O         31.62800       44.11604       20.36889
H         32.73556       46.17185       22.54587
H         33.79784       43.44985       21.72907
H         33.44664       44.14410       19.39723
H         31.74152       43.13095       20.35783
H         33.72680       46.61531       19.61007
H         32.18729       46.15834       18.79385
H         32.15072       46.72418       20.48909
N         35.64326       46.00511       22.23564
C         37.01276       46.50829       22.14434
C         38.01006       45.42838       22.54405
O         37.98221       44.99631       23.68871
C         37.16379       47.76382       23.04441
C         38.59331       48.30643       23.07391
O         36.32227       48.78411       22.56613
H         35.02245       46.41805       22.94580
H         37.20421       46.82928       21.09577
H         36.89887       47.50977       24.09939
H         35.42930       48.65689       22.97917
H         38.93558       48.56293       22.04940
H         38.63090       49.21725       23.70815
H         39.28336       47.56119       23.51963
N         38.92255       44.94971       21.64171
C         39.92618       43.92900       21.94632
C         39.23937       42.70484       22.51019
O         39.44794       42.35927       23.66623
C         41.03477       44.46758       22.88376
C         41.76586       45.72068       22.36388
C         42.36869       45.55830       20.95942
C         43.16058       46.80944       20.55506
N         43.63816       46.70426       19.17648
H         38.89056       45.30323       20.67353
H         40.43134       43.62013       21.00574
H         41.78739       43.65846       23.01969
H         40.61367       44.71050       23.88287
H         42.57797       45.95495       23.08726
H         41.06218       46.57750       22.34619
H         41.54745       45.41460       20.22611
H         43.04187       44.67385       20.92951
H         44.02790       46.93452       21.24146
H         42.51152       47.70907       20.64224
H         42.82381       46.63981       18.52263
H         44.19065       47.55962       18.93901
H         44.24758       45.86196       19.06469
N         38.35777       42.02410       21.73162
C         37.47793       40.98837       22.25012
C         36.04525       41.34469       21.89442
O         35.30431       41.61212       22.82870
C         37.92684       39.56572       21.84323
C         36.98546       38.43535       22.31279
C         36.81900       38.33672       23.80650
O         36.26601       39.22516       24.43239
O         37.23018       37.23169       24.45640
H         38.26465       42.31980       20.75061
H         37.54419       40.99557       23.35904
H         38.94011       39.39097       22.26726
H         38.02875       39.46128       20.75163
H         37.41696       37.47751       21.95075
H         35.98469       38.55241       21.84389
N         35.53378       41.41016       20.62499
C         36.21370       41.14722       19.37281
H         37.27672       40.90449       19.47035
H         35.71118       40.30085       18.85863
H         36.14317       42.04608       18.72619
H         34.54772       41.67866       20.52355
Ca        32.41547       40.71771       24.32647
O         33.60804       37.68004       24.37937
H         33.05123       38.00855       25.12795
H         33.26207       36.77143       24.19403
O         35.97666       41.53362       26.04949
H         36.91673       41.84029       26.10072
H         35.46869       42.33355       25.76507

Ca 1.0



