%chk=apoCaM-CA-Ng.loop4.water4.frame921.chk
%nprocshared=20
%mem=10GB
%nosave
#b3lyp/svp scf=(tight,noincore,xqc) Test 
#IOP(5/87=12) Density=Current Pop=(MK,readradii) iop(6/33=2) iop(6/42=6)

apoCaM-CA-Ng.loop4.water4.frame921 

   -3  1 
C        -11.05850        5.32944       29.80609
C        -12.14025        4.85699       30.72945
O        -13.04910        4.18959       30.26405
H        -10.08076        4.93089       30.14830
H        -11.24406        4.97296       28.76937
H        -11.02633        6.43854       29.80097
N        -12.10944        5.20772       32.05120
C        -13.06885        4.81367       33.08812
C        -12.84681        3.37948       33.55830
O        -12.53782        3.19918       34.72783
C        -14.53951        5.07540       32.70545
C        -14.80011        6.51254       32.34650
O        -15.65460        7.24701       33.08391
O        -14.26257        7.01463       31.37328
H        -11.34912        5.83784       32.35070
H        -12.86169        5.45488       33.97701
H        -15.17368        4.81318       33.58024
H        -14.85166        4.42867       31.86395
N        -12.96741        2.31343       32.71526
C        -12.72207        0.92072       33.08364
C        -13.77034        0.46371       34.10408
O        -13.40510        0.12644       35.22131
C        -11.23802        0.70481       33.54724
C        -10.24320        1.37694       32.55863
C        -10.93745       -0.80605       33.67168
C         -8.78123        1.30003       33.00639
H        -13.22660        2.47687       31.74034
H        -12.84878        0.29695       32.17005
H        -11.09494        1.18065       34.54104
H        -10.47773        2.45941       32.48110
H        -10.34441        0.93089       31.54581
H        -11.02570       -1.29886       32.67939
H         -9.91950       -0.98453       34.06962
H        -11.63272       -1.31177       34.36886
H         -8.14730        1.86474       32.29068
H         -8.66329        1.75305       34.01413
H         -8.41259        0.25555       33.02443
N        -15.11050        0.43238       33.82914
C        -15.72184        0.79502       32.55363
C        -16.56942        2.04784       32.73946
O        -16.70888        2.51578       33.86234
C        -16.50371       -0.42263       32.01599
C        -17.04046       -0.23248       30.62541
O        -18.36420       -0.31586       30.39426
O        -16.27801       -0.01534       29.69622
H        -15.74783        0.13465       34.58578
H        -14.94754        1.04050       31.80855
H        -17.33420       -0.66612       32.71309
H        -15.81517       -1.29550       31.98021
N        -17.09398        2.69660       31.66232
C        -17.75113        3.98761       31.74752
C        -19.14355        3.97902       31.18003
O        -19.69676        2.92905       30.88293
H        -16.94587        2.31873       30.71776
H        -17.14734        4.69956       31.14689
H        -17.79831        4.37824       32.78752
N        -19.76201        5.17696       30.99658
C        -21.12298        5.34688       30.49840
C        -21.39431        4.76486       29.10764
O        -22.55711        4.77592       28.72885
C        -21.53045        6.84570       30.58560
C        -20.57011        7.80602       29.92151
O        -19.93008        8.72976       30.66456
O        -20.36752        7.76914       28.72277
H        -19.23221        6.01880       31.27163
H        -21.80081        4.79262       31.18478
H        -21.56039        7.11844       31.66268
H        -22.55330        6.99566       30.17763
N        -20.43764        4.20632       28.30169
C        -20.77196        3.58342       27.01988
C        -21.28485        4.55822       25.97066
O        -21.69030        4.11740       24.90556
H        -19.45464        4.17673       28.60352
H        -21.53979        2.80033       27.20115
H        -19.87144        3.08510       26.59957
N        -21.25827        5.89891       26.19236
C        -21.68528        6.93798       25.26968
C        -20.86749        6.89972       23.99730
O        -21.41530        6.99209       22.90653
C        -23.21040        6.93393       25.03631
C        -23.97774        6.98983       26.36894
C        -25.47153        7.10745       26.20586
N        -26.26229        7.11865       27.30356
O        -25.97678        7.19513       25.09595
H        -20.86104        6.23647       27.06861
H        -21.44045        7.91069       25.75607
H        -23.51707        6.02466       24.47586
H        -23.46743        7.83045       24.42893
H        -23.62650        7.85826       26.96764
H        -23.77111        6.05941       26.93385
H        -25.85213        7.03879       28.24615
H        -27.28549        7.20142       27.21320
N        -19.51394        6.78942       24.09049
C        -18.60775        6.88229       22.95199
C        -17.64518        8.04774       23.11407
O        -17.09239        8.48284       22.11495
C        -17.81466        5.56347       22.73070
C        -16.90035        5.20296       23.91787
C        -18.76409        4.39747       22.43659
H        -19.12077        6.63733       25.02873
H        -19.19403        7.08547       22.02802
H        -17.16578        5.70014       21.83640
H        -17.48581        5.02491       24.84367
H        -16.32438        4.28136       23.68938
H        -16.16519        6.00962       24.10960
H        -19.39130        4.62956       21.55028
H        -18.18050        3.47775       22.21784
H        -19.42494        4.19820       23.30594
N        -17.31966        8.53496       24.34952
C        -16.31830        9.56014       24.57331
C        -16.94373       10.69551       25.39281
O        -18.03923       10.52078       25.90700
C        -15.13654        8.82822       25.26279
C        -13.84039        9.60421       25.41510
N        -13.35255       10.08981       24.12794
O        -14.04382       10.65112       26.29705
H        -17.72095        8.12243       25.19826
H        -15.97997        9.97195       23.59927
H        -14.87617        7.94093       24.64684
H        -15.45611        8.45245       26.25946
H        -13.18359        9.26383       23.50740
H        -12.42423       10.54405       24.27955
N        -16.33837       11.91717       25.49653
C        -16.93940       13.02750       26.25203
C        -16.16583       14.33380       26.02761
O        -15.12879       14.31788       25.38427
C        -16.94130       12.69141       27.77353
C        -17.95773       13.47350       28.57494
C        -19.32544       13.19069       28.41394
C        -17.56738       14.45388       29.50457
C        -20.28602       13.87535       29.16300
C        -18.53364       15.15292       30.23997
C        -19.89645       14.85967       30.07562
O        -20.83850       15.51534       30.78418
H        -15.46788       12.05753       24.96917
H        -17.97649       13.15661       25.86950
H        -15.90909       12.84229       28.16110
H        -17.18784       11.62634       27.95731
H        -19.64734       12.42608       27.71764
H        -16.52059       14.69064       29.64656
H        -21.33490       13.63578       29.03749
H        -18.22335       15.91644       30.94229
H        -20.61683       16.20653       31.42406
N        -16.60901       15.50969       26.55928
C        -15.85516       16.75503       26.48369
C        -15.56984       17.23240       27.90179
O        -16.39947       17.95659       28.43635
C        -16.66626       17.82908       25.71770
C        -16.95236       17.44542       24.26218
C        -17.70365       18.54923       23.57011
O        -18.91360       18.93287       24.02227
O        -17.22166       19.10421       22.59557
H        -17.50957       15.53103       27.05494
H        -14.90137       16.63324       25.93743
H        -16.08344       18.77799       25.72197
H        -17.63510       18.01015       26.23598
H        -17.56467       16.51957       24.22373
H        -15.99099       17.26056       23.73504
N        -14.47837       16.86863       28.64224
C        -13.36365       15.99931       28.25448
C        -12.56027       16.60902       27.12138
O        -12.10413       17.73598       27.25817
C        -12.44650       15.81904       29.49961
C        -11.20153       14.92661       29.34337
C        -11.54587       13.51679       28.99975
O        -12.33216       12.88214       29.68692
O        -10.98889       12.94583       27.92000
H        -14.45623       17.25012       29.60247
H        -13.75979       15.00028       27.96533
H        -13.06273       15.40050       30.32634
H        -12.08789       16.82034       29.82350
H        -10.66326       14.91783       30.31442
H        -10.51721       15.33956       28.57135
N        -12.32328       15.90025       25.98085
C        -11.54339       16.40891       24.86962
H        -10.66513       15.74940       24.70549
H        -12.16635       16.41130       23.95092
H        -11.17492       17.44129       25.04583
H        -12.69573       14.94368       25.89393
Ca       -12.05006       11.15890       27.16360
O        -14.87634       10.54434       29.18968
H        -15.62483        9.91003       29.05696
H        -15.16328       11.11325       29.94785
O        -10.38587        8.64702       26.28851
H        -10.76060        7.73987       26.15842
H        -10.36803        9.04133       25.38029
O        -12.51266        9.60013       31.05472
H        -12.08803        9.04662       31.75718
H        -13.47237        9.61022       31.29731
O        -13.63484        7.49301       28.30536
H        -14.57553        7.19852       28.40086
H        -13.34452        7.11785       27.43623

Ca 1.0



