%chk=apoCaM-CA-Ng.loop3.water3.frame566.chk
%nprocshared=20
%mem=10GB
%nosave
#b3lyp/svp scf=(tight,noincore,xqc) Test 
#IOP(5/87=12) Density=Current Pop=(MK,readradii) iop(6/33=2) iop(6/42=6)

apoCaM-CA-Ng.loop3.water3.frame566 

   0  1 
C         50.25408      -14.77211       82.72219
C         49.43392      -15.96851       83.10577
O         48.90736      -16.01509       84.20823
H         51.28999      -15.09139       82.48152
H         49.80777      -14.29186       81.82499
H         50.28696      -14.02859       83.54585
N         49.27130      -16.97929       82.21171
C         48.45917      -18.16219       82.46817
C         49.02920      -18.97376       83.62233
O         50.18730      -19.36252       83.57323
C         48.35178      -18.99094       81.16944
C         47.34960      -20.10719       81.23483
O         47.23709      -20.86760       80.28732
O         46.57345      -20.28956       82.31774
H         49.72196      -16.87719       81.28816
H         47.43970      -17.83763       82.73715
H         49.35410      -19.40460       80.92517
H         48.03215      -18.32958       80.33496
N         48.24438      -19.26199       84.70035
C         48.69843      -19.99666       85.87869
C         49.25732      -21.36458       85.50779
O         50.37405      -21.66118       85.90980
C         47.53493      -20.10149       86.89739
C         47.94309      -20.74895       88.23142
C         46.78681      -20.70710       89.24508
C         47.19740      -21.33993       90.58346
N         46.10576      -21.27499       91.55618
H         47.26675      -18.93086       84.68530
H         49.50403      -19.40781       86.37246
H         46.69235      -20.66895       86.45437
H         47.18089      -19.06828       87.11445
H         48.80700      -20.19253       88.65598
H         48.24521      -21.80421       88.05626
H         45.90844      -21.25200       88.83482
H         46.49581      -19.64826       89.42376
H         48.08058      -20.80128       90.99381
H         47.47967      -22.40359       90.41984
H         45.27191      -21.79603       91.19991
H         46.41946      -21.71282       92.45278
H         45.84656      -20.27870       91.74205
N         48.55402      -22.23624       84.72956
C         49.03141      -23.57767       84.38279
C         49.38382      -23.73267       82.90248
O         49.77751      -24.82925       82.52854
C         48.02353      -24.64657       84.89271
C         46.59568      -24.39673       84.48664
O         46.24048      -24.36091       83.19651
O         45.76170      -24.13634       85.33793
H         47.63997      -21.93166       84.36298
H         49.98902      -23.79914       84.90264
H         48.05684      -24.62124       86.00360
H         48.33782      -25.66284       84.57206
N         49.35119      -22.69314       82.01058
C         49.78299      -22.83640       80.61934
C         48.92369      -23.78524       79.79372
O         49.30088      -24.08697       78.67265
H         49.07674      -21.75814       82.33407
H         50.82936      -23.21556       80.62268
H         49.79189      -21.84642       80.11481
N         47.77461      -24.31298       80.30038
C         46.97177      -25.34743       79.66690
C         45.52378      -24.89565       79.54153
O         44.95090      -24.43103       80.51416
C         47.04829      -26.60154       80.56355
C         46.20795      -27.74439       80.05023
N         46.45685      -28.30828       78.84620
O         45.29091      -28.16844       80.73784
H         47.46817      -24.01020       81.22521
H         47.37583      -25.62233       78.66818
H         46.70742      -26.33898       81.58804
H         48.10569      -26.93840       80.63692
H         47.23020      -27.97358       78.25410
H         45.87477      -29.08849       78.50714
N         44.83912      -25.11046       78.38440
C         43.41671      -24.84315       78.23934
C         43.10927      -23.36694       78.19847
O         43.66404      -22.68489       77.34795
H         45.32302      -25.56652       77.59667
H         42.84905      -25.36645       79.04034
H         43.08184      -25.26605       77.26754
N         42.18095      -22.80940       79.03417
C         41.79244      -21.40155       78.92811
C         42.94366      -20.45167       79.23820
O         44.00491      -20.87784       79.66695
C         40.53773      -21.06354       79.77311
C         39.25150      -21.41470       79.04877
C         38.42703      -20.37064       78.58350
C         38.86015      -22.74378       78.80924
C         37.24748      -20.64469       77.89121
C         37.66968      -23.01586       78.11977
C         36.86224      -21.96518       77.65651
O         35.71808      -22.20894       76.98568
H         41.70201      -23.41549       79.71722
H         41.53331      -21.19784       77.86367
H         40.51788      -19.96514       79.92941
H         40.57978      -21.51003       80.78689
H         38.70188      -19.33512       78.74324
H         39.46416      -23.57024       79.15449
H         36.63433      -19.82602       77.53448
H         37.37575      -24.04270       77.94308
H         35.40950      -23.10632       76.79797
N         42.79297      -19.13118       78.90307
C         43.85016      -18.12373       78.86839
C         44.36586      -17.71861       80.24086
O         44.77873      -18.57268       81.01093
C         45.02827      -18.55730       77.93439
C         46.02546      -17.37636       77.76045
C         44.48830      -19.02425       76.56545
C         47.26643      -17.71337       76.93599
H         41.88504      -18.83602       78.51363
H         43.40930      -17.21595       78.39657
H         45.56961      -19.41047       78.39685
H         46.39718      -17.05462       78.75508
H         45.50426      -16.51281       77.29124
H         43.79716      -19.88391       76.68061
H         43.94535      -18.20074       76.05564
H         45.30585      -19.38430       75.91085
H         47.81981      -18.55454       77.40379
H         47.00628      -17.96961       75.89012
H         47.93073      -16.82383       76.90409
N         44.52841      -16.39136       80.53195
C         45.33043      -15.93250       81.66270
C         44.65975      -16.10451       83.01875
O         45.34149      -15.96601       84.02367
C         45.77517      -14.47187       81.47521
O         46.56768      -14.34111       80.32268
H         44.22613      -15.69906       79.82937
H         46.25911      -16.52183       81.64487
H         46.39825      -14.15569       82.33932
H         44.89822      -13.78634       81.43685
H         45.95530      -14.20734       79.55422
N         43.32670      -16.35798       83.13253
C         42.65077      -16.50891       84.41990
C         43.11563      -17.77817       85.11394
O         43.12385      -18.80672       84.45638
C         41.13807      -16.59248       84.19079
H         42.76168      -16.41378       82.27324
H         42.83155      -15.60783       85.04093
H         40.78670      -15.66552       83.68918
H         40.88145      -17.46598       83.55421
H         40.60389      -16.68384       85.15879
N         43.49106      -17.84704       86.42652
C         43.45963      -16.74707       87.38556
C         42.02837      -16.24520       87.58322
O         41.17137      -17.08931       87.80912
C         43.97187      -17.23311       88.75129
H         43.79297      -18.77296       86.77261
H         44.17139      -15.97976       87.04649
H         43.33134      -18.05100       89.14921
H         45.01189      -17.61120       88.66148
H         43.96671      -16.39499       89.48194
N         41.64588      -14.92906       87.58280
C         42.51780      -13.76712       87.44276
C         42.03934      -12.86301       86.32008
O         42.80506      -12.62160       85.39626
C         42.71011      -13.04044       88.80248
C         41.51559      -12.33199       89.47110
C         40.39501      -13.25345       89.85914
O         39.26430      -13.05474       89.44396
O         40.62547      -14.28901       90.68843
H         40.64742      -14.74409       87.75637
H         43.54153      -14.06901       87.17938
H         43.49152      -12.26308       88.65248
H         43.12435      -13.77963       89.52428
H         41.14817      -11.51114       88.82167
H         41.88829      -11.86027       90.40596
N         40.78539      -12.33157       86.31692
C         40.32319      -11.45303       85.26529
H         39.27634      -11.14024       85.46718
H         40.96133      -10.54460       85.22350
H         40.35670      -11.97858       84.28786
H         40.12840      -12.55390       87.07513
Ca        45.64053      -22.30781       82.54563
O         42.46484      -20.96725       82.52686
H         41.81610      -21.62330       82.88582
H         41.96305      -20.11413       82.50607
O         42.87935      -24.09874       82.80730
H         43.22629      -24.96911       82.48865
H         43.37353      -23.92641       83.64777
O         44.51923      -21.29478       85.11278
H         44.69342      -21.83019       85.92586
H         43.54905      -21.40423       84.95557

Ca 1.0



