%chk=apoCaM-CA-Ng.loop2.water2.frame875.chk
%nprocshared=20
%mem=10GB
%nosave
#b3lyp/svp scf=(tight,noincore,xqc) Test 
#IOP(5/87=12) Density=Current Pop=(MK,readradii) iop(6/33=2) iop(6/42=6)

apoCaM-CA-Ng.loop2.water2.frame875 

   -2  1 
C         14.99777       13.26648        0.19921
C         14.26854       14.55436       -0.05603
O         13.24309       14.53126       -0.72072
H         15.90691       13.42977        0.81654
H         14.33050       12.56508        0.74328
H         15.30236       12.80894       -0.76433
N         14.73446       15.72080        0.46947
C         14.07048       17.01016        0.31827
C         13.57420       17.49683        1.68577
O         13.16735       18.64302        1.80529
C         15.07534       17.98444       -0.33818
C         14.47907       19.28643       -0.81838
O         13.15819       19.53714       -0.72365
O         15.20336       20.11428       -1.34682
H         15.59507       15.69687        1.03978
H         13.19195       16.92553       -0.35876
H         15.50518       17.49299       -1.23891
H         15.90415       18.18852        0.37421
N         13.51736       16.64228        2.75220
C         13.03913       17.00161        4.08253
C         14.08789       16.59004        5.12540
O         15.09516       16.01875        4.72822
C         11.70891       16.26059        4.28404
H         13.77184       15.65259        2.62163
H         12.85409       18.09551        4.14987
H         11.00284       16.54878        3.47572
H         11.86469       15.16142        4.23945
H         11.21002       16.50883        5.23295
N         13.97199       16.79434        6.47323
C         12.90301       17.51597        7.15649
C         13.48124       18.63785        8.00862
O         14.69675       18.75758        8.09565
C         12.03489       16.53886        7.98286
C         12.77325       15.78913        9.05588
O         12.37841       15.90269       10.33393
O         13.68216       15.02493        8.77443
H         14.72999       16.41532        7.06226
H         12.24615       18.00854        6.41460
H         11.58786       15.78166        7.30729
H         11.19947       17.10490        8.44721
N         12.65902       19.55155        8.60511
C         13.17240       20.74224        9.26427
C         12.50889       21.06938       10.58679
O         11.86623       22.10838       10.64356
H         11.64035       19.47575        8.46484
H         12.96516       21.59163        8.57674
H         14.27355       20.71166        9.40698
N         12.65575       20.34477       11.73288
C         13.35731       19.07926       11.87455
C         14.69863       19.33575       12.54797
O         14.73293       19.73743       13.70301
C         12.43896       18.15322       12.70719
C         12.95603       16.79131       13.06250
N         12.20419       16.00669       13.86769
O         14.03211       16.39127       12.64856
H         12.25005       20.75008       12.59279
H         13.54104       18.62660       10.87949
H         11.47499       18.02264       12.16798
H         12.22418       18.66215       13.67275
H         11.29421       16.33278       14.22253
H         12.52525       15.08096       14.15920
N         15.85212       19.19306       11.83165
C         17.17374       19.53930       12.33757
C         17.79729       18.52072       13.27273
O         18.91540       18.76340       13.70584
H         15.78245       18.93863       10.83578
H         17.13364       20.54172       12.81646
H         17.86527       19.61383       11.47073
N         17.17475       17.35834       13.61132
C         17.76615       16.33494       14.47178
C         17.85032       15.00538       13.73158
O         17.45820       14.92819       12.57393
C         16.91843       16.19829       15.76378
C         16.96218       17.47971       16.59954
O         15.58838       15.88488       15.43368
H         16.23399       17.17541       13.24486
H         18.80335       16.60451       14.77117
H         17.35176       15.39519       16.40107
H         15.21668       15.35378       16.18558
H         18.01271       17.70951       16.88212
H         16.54097       18.33913       16.03832
H         16.37605       17.33892       17.53230
N         18.31904       13.89745       14.37066
C         18.30281       12.55642       13.80335
C         17.16761       11.82403       14.47833
O         17.14154       11.76318       15.70254
C         19.67117       11.84922       14.02624
C         19.66954       10.35784       13.59122
C         20.80919       12.62090       13.33992
C         19.37810       10.10227       12.10808
H         18.61773       13.98150       15.35431
H         18.09613       12.59226       12.71147
H         19.88647       11.85097       15.11883
H         18.91721        9.81347       14.19644
H         20.65805        9.91018       13.83320
H         21.78160       12.12090       13.53748
H         20.65032       12.68173       12.24363
H         20.87283       13.65458       13.73921
H         19.39128        9.00796       11.91714
H         18.37780       10.48168       11.82178
H         20.14734       10.57125       11.46246
N         16.17544       11.25628       13.73718
C         14.99579       10.64983       14.32711
C         15.11195        9.14144       14.42673
O         14.23947        8.53512       15.02558
C         13.72888       11.13640       13.58010
C         13.62332       12.64322       13.66219
O         13.90235       13.18800       14.71714
O         13.38233       13.44005       12.60001
H         16.25314       11.25554       12.70969
H         14.90543       10.97213       15.39062
H         12.83927       10.70256       14.08568
H         13.72369       10.79660       12.52144
N         16.19520        8.47651       13.92273
C         16.43225        7.05747       14.13778
C         16.33553        6.33688       12.80966
O         17.16342        6.60381       11.95707
C         17.83749        6.86664       14.75953
C         18.27704        5.41946       14.77473
C         19.42145        5.03125       14.05163
C         17.54904        4.44638       15.47726
C         19.82283        3.69401       14.02660
C         17.95221        3.10709       15.44529
C         19.08690        2.73142       14.72005
H         16.89440        8.98663       13.37185
H         15.69297        6.65543       14.84834
H         17.85449        7.28989       15.78700
H         18.56796        7.44498       14.15284
H         20.00118        5.76102       13.49893
H         16.66681        4.72168       16.03935
H         20.70180        3.40464       13.46439
H         17.38269        2.35875       15.97986
H         19.39629        1.69477       14.69396
N         15.36287        5.39532       12.55796
C         15.27444        4.62852       11.32107
C         15.22648        5.42418       10.02943
O         15.26688        4.79602        8.97882
C         13.97019        3.83763       11.48010
C         13.93497        3.59534       12.96719
C         14.36652        4.95115       13.51228
H         16.16434        3.96123       11.30122
H         13.10500        4.50374       11.25158
H         13.89964        2.92882       10.84558
H         12.97329        3.21915       13.37517
H         14.73617        2.85526       13.19933
H         13.53712        5.69289       13.53469
H         14.76015        4.76244       14.53180
N         15.14585        6.78790        9.99828
C         15.16807        7.53324        8.74656
C         16.50119        7.41775        8.00633
O         16.58734        7.92577        6.89772
C         14.81647        9.01168        8.99012
C         15.91905        9.83103        9.69633
C         15.45610       11.23315        9.93723
O         14.27524       11.52558        9.80739
O         16.32077       12.21056       10.25526
H         15.02176        7.31117       10.87633
H         14.35971        7.11778        8.10459
H         13.86825        9.04648        9.57317
H         14.62509        9.49810        8.00725
H         16.81087        9.87092        9.03789
H         16.21414        9.39051       10.67271
N         17.58533        6.79313        8.55859
C         18.86817        6.67290        7.90012
H         19.64666        7.15186        8.53097
H         19.11615        5.59694        7.78406
H         18.87956        7.15042        6.89945
H         17.53052        6.38132        9.49628
Ca        15.10771       13.76071       11.24647
O         16.71923       16.59320       10.04456
H         17.21778       16.88667        9.24101
H         15.76691       16.65218        9.78048
O         17.22475       14.24123        8.30381
H         18.02134       13.79710        8.68992
H         16.69301       13.50503        7.90963

Ca 1.0



