%chk=apoCaM-CA-Ng.loop1.water5.frame1010.chk
%nprocshared=20
%mem=10GB
%nosave
#b3lyp/svp scf=(tight,noincore,xqc) Test 
#IOP(5/87=12) Density=Current Pop=(MK,readradii) iop(6/33=2) iop(6/42=6)

apoCaM-CA-Ng.loop1.water5.frame1010 

   0  1 
C         52.05978       18.52920       39.78356
C         51.60534       18.53601       41.21391
O         50.44268       18.26176       41.47422
H         52.88054       17.79055       39.65890
H         51.22687       18.24716       39.10451
H         52.43120       19.53588       39.50078
N         52.49654       18.81625       42.20389
C         52.16869       18.78646       43.62198
C         52.51926       20.12418       44.25038
O         53.46120       20.19642       45.02964
C         52.93240       17.61363       44.27257
C         52.57648       17.45657       45.72686
O         53.53100       17.55813       46.67107
O         51.42198       17.23571       46.05744
H         53.47457       19.01776       41.94073
H         51.08472       18.59468       43.78501
H         54.02873       17.76893       44.16338
H         52.66542       16.67009       43.74943
N         51.79057       21.23949       43.95814
C         52.11089       22.54231       44.54132
C         52.06771       22.44396       46.07052
O         53.11009       22.66010       46.67236
C         51.24736       23.71226       43.96506
C         51.23515       23.78665       42.42308
C         52.59926       24.10958       41.80288
C         52.52407       24.01467       40.27284
N         53.78760       24.41823       39.65939
H         50.99349       21.13965       43.31451
H         53.15825       22.78292       44.25885
H         51.61700       24.67615       44.37778
H         50.18991       23.64833       44.26388
H         50.52266       24.58307       42.11327
H         50.84733       22.83666       42.00523
H         53.37259       23.39120       42.14192
H         52.89622       25.13476       42.11480
H         51.70772       24.66303       39.88499
H         52.29718       22.96064       39.99096
H         53.96326       25.43136       39.85077
H         54.57674       23.84448       40.03598
H         53.72590       24.27480       38.62557
N         50.96759       22.08062       46.80116
C         49.63395       21.84189       46.26896
C         49.14456       20.42739       46.53175
O         49.74933       19.70117       47.30813
C         48.72865       22.92976       46.88246
C         47.32713       22.93048       46.38409
O         47.10025       23.05799       45.19207
O         46.31147       22.83169       47.26185
H         51.07719       22.01453       47.82647
H         49.63496       21.91899       45.17668
H         49.16266       23.92422       46.64016
H         48.72020       22.82253       47.98998
N         48.07535       19.95343       45.82459
C         47.54624       18.60490       45.93372
C         46.06431       18.57715       46.25671
O         45.52051       17.48364       46.30972
H         47.63969       20.56365       45.11798
H         48.09105       18.01440       46.70021
H         47.68619       18.10339       44.95143
N         45.33658       19.71784       46.46686
C         43.90886       19.74065       46.76880
C         43.12614       19.13567       45.62215
O         42.48928       18.10862       45.81054
C         43.64483       19.08533       48.14743
C         44.37259       19.88581       49.18788
O         45.25281       19.38473       49.86879
O         44.09314       21.19839       49.29005
H         45.79979       20.62821       46.41301
H         43.56529       20.79299       46.85717
H         43.97393       18.02461       48.16721
H         42.55849       19.11232       48.37999
N         43.12541       19.69095       44.37342
C         43.75674       20.95370       44.00344
C         42.99520       22.13540       44.56822
O         41.80105       22.21660       44.31885
H         42.62651       19.18577       43.62448
H         43.69672       21.05510       42.89832
H         44.83445       20.96001       44.26462
N         43.61843       23.12037       45.28527
C         42.90795       24.28728       45.81561
C         43.89203       25.34780       46.32770
O         44.56226       25.10927       47.32070
C         41.92012       23.84080       46.92835
C         41.09324       24.99306       47.49617
O         42.63304       23.22298       47.96813
H         44.63400       23.05589       45.41358
H         42.33599       24.73956       44.97591
H         41.20236       23.11417       46.48539
H         42.05322       22.50527       48.33462
H         40.50044       25.47008       46.68850
H         40.39340       24.59638       48.26321
H         41.74503       25.75191       47.97704
N         44.03729       26.53722       45.65811
C         44.95876       27.62484       46.01596
C         44.48132       28.38817       47.24673
O         44.24890       27.77167       48.27474
C         46.43724       27.14651       46.15556
C         46.91777       26.32214       44.93498
C         47.38174       28.33584       46.41197
C         46.86143       27.04704       43.58853
H         43.49043       26.67161       44.79453
H         44.94647       28.35053       45.17398
H         46.52737       26.48353       47.04022
H         46.29324       25.41148       44.84996
H         47.96498       25.99401       45.11741
H         48.43013       27.98544       46.51577
H         47.32835       29.08274       45.59242
H         47.11173       28.83979       47.35920
H         45.81800       27.31943       43.32923
H         47.49441       27.95678       43.59220
H         47.23947       26.36641       42.79711
N         44.31382       29.74914       47.18863
C         43.82940       30.59305       48.29288
C         43.48825       32.01636       47.81471
O         43.73165       32.36230       46.66467
C         44.83436       30.67451       49.49280
C         46.14915       31.37110       49.12878
O         45.12924       29.40872       50.01701
H         44.50812       30.19724       46.28116
H         42.87297       30.15212       48.65120
H         44.38808       31.28729       50.30934
H         44.34800       29.13429       50.56580
H         46.81085       31.40508       50.02131
H         46.67493       30.83319       48.31846
H         45.96546       32.41622       48.80299
N         42.89032       32.89508       48.66717
C         42.48976       34.25209       48.29369
C         43.69903       35.11113       47.92057
O         44.63246       35.21473       48.70311
C         41.66651       34.89094       49.43953
C         41.16921       36.29519       49.07359
O         40.55298       34.07128       49.69505
H         42.66896       32.56611       49.62008
H         41.80135       34.18534       47.42117
H         42.30680       34.95122       50.35052
H         40.20392       34.32186       50.58964
H         42.02311       36.98054       48.91196
H         40.54825       36.26096       48.15259
H         40.55456       36.70652       49.90181
N         43.70199       35.78700       46.73252
C         44.77241       36.63687       46.21489
C         46.01827       35.87162       45.82736
O         46.58686       35.15108       46.63584
C         45.19131       37.83535       47.10020
C         44.11773       38.92758       47.20547
C         44.74653       40.26336       47.64205
C         43.70950       41.39348       47.65599
N         44.34764       42.68793       47.89957
H         42.86550       35.70692       46.13487
H         44.39115       37.09548       45.27567
H         46.04912       38.30338       46.56278
H         45.56772       37.53251       48.10081
H         43.30853       38.60943       47.89194
H         43.68350       39.09926       46.19655
H         45.53430       40.53388       46.90260
H         45.22225       40.16886       48.64246
H         42.95207       41.18932       48.44385
H         43.19243       41.43645       46.67122
H         43.61383       43.43231       47.92433
H         44.85942       42.67932       48.81101
H         45.01524       42.90718       47.12352
N         46.58145       36.14310       44.61402
C         47.89705       35.67817       44.21982
C         47.89714       34.17947       43.95104
O         48.70846       33.49444       44.55605
C         48.42956       36.51492       43.02491
C         49.96273       36.55853       42.97601
C         50.43399       37.40970       41.82965
O         50.04721       38.69766       41.73555
O         51.17694       36.94133       40.98280
H         46.10839       36.81921       43.99437
H         48.58142       35.91748       45.06616
H         48.11056       37.57166       43.16611
H         48.02003       36.16930       42.05924
H         50.38133       35.53391       42.89219
H         50.33646       37.01907       43.91835
N         47.02697       33.55732       43.09526
C         45.94639       34.20566       42.37401
H         45.22494       34.66448       43.08009
H         46.31968       34.96350       41.66412
H         45.38750       33.45236       41.77920
H         47.11111       32.53563       42.97663
Ca        45.37850       22.73568       50.30050
O         44.38933       25.80287       50.62888
H         43.51122       26.09151       50.27395
H         44.63385       26.50071       51.28709
O         47.27057       25.15004       49.72840
H         47.72057       25.30191       50.59725
H         47.71032       25.78235       49.10682
O         48.05812       21.55136       50.48596
H         47.86784       21.34696       51.43595
H         47.50468       20.90634       49.97799
O         45.41578       23.26127       53.06088
H         46.33130       22.92233       52.89339
H         45.53293       24.23427       53.19864
O         42.46034       23.46482       50.98267
H         42.58352       23.58788       51.95704
H         41.72810       22.80345       50.90375

Ca 1.0



