%chk=apoCaM-CA-Ng.loop1.water3.frame11.chk
%nprocshared=20
%mem=10GB
%nosave
#b3lyp/svp scf=(tight,noincore,xqc) Test 
#IOP(5/87=12) Density=Current Pop=(MK,readradii) iop(6/33=2) iop(6/42=6)

apoCaM-CA-Ng.loop1.water3.frame11 

   0  1 
C         52.11852       49.98890       77.21574
C         51.41510       51.31445       77.26836
O         52.05281       52.32772       77.02183
H         52.95419       49.98812       77.94708
H         51.43313       49.15259       77.46977
H         52.52436       49.81817       76.19740
N         50.09621       51.38169       77.60345
C         49.35578       52.63584       77.72747
C         48.88347       52.88275       79.15864
O         48.30928       53.93297       79.40058
C         48.15769       52.66054       76.74527
C         47.12246       51.59208       77.00052
O         45.86909       51.93998       77.35000
O         47.39638       50.41202       76.85419
H         49.60656       50.49787       77.80396
H         50.01413       53.49128       77.46256
H         48.52409       52.55520       75.70153
H         47.66134       53.65224       76.82622
N         49.05838       51.95789       80.14622
C         48.53516       52.09827       81.50264
C         49.35522       53.09849       82.31019
O         50.56877       52.94128       82.31478
C         48.55924       50.72332       82.21847
C         47.77230       49.60991       81.48327
C         46.28598       49.94695       81.25804
C         45.49177       48.79437       80.61836
N         45.94169       48.48488       79.25937
H         49.53239       51.07664       79.91662
H         47.47987       52.38686       81.45286
H         48.13148       50.84081       83.23674
H         49.61099       50.37902       82.33243
H         47.84086       48.68739       82.09913
H         48.25487       49.39476       80.51054
H         46.17895       50.83814       80.60431
H         45.82593       50.17271       82.24365
H         44.42301       49.10105       80.57259
H         45.56092       47.88629       81.25578
H         45.86756       49.33578       78.65799
H         46.92258       48.12710       79.25801
H         45.32542       47.74153       78.85868
N         48.83387       54.10687       83.08508
C         47.42304       54.44212       83.31018
C         46.63895       53.23482       83.82481
O         45.71780       52.79764       83.14838
C         46.77539       55.08439       82.06805
C         47.43257       56.35762       81.62563
O         48.48040       56.89660       82.27762
O         46.99351       56.93113       80.64244
H         49.51504       54.67159       83.61852
H         47.36175       55.23356       84.09103
H         45.71983       55.33564       82.30710
H         46.76427       54.38642       81.21844
N         46.91607       52.61509       85.00870
C         47.89487       53.07875       85.97694
C         47.24126       53.31949       87.32787
O         46.08233       52.97469       87.50543
H         46.37229       51.77258       85.25252
H         48.37672       54.00509       85.63672
H         48.69021       52.31352       86.09784
N         47.91969       53.89526       88.36258
C         49.26487       54.43969       88.23374
C         49.29160       55.71943       87.38798
O         50.38395       56.20980       87.14344
C         49.87595       54.72233       89.62413
C         49.97913       53.46731       90.44999
O         50.64809       52.52432       90.05656
O         49.34450       53.38290       91.63454
H         47.44384       53.95621       89.27760
H         49.91321       53.67741       87.74600
H         49.25856       55.47519       90.16089
H         50.90302       55.13187       89.50737
N         48.15725       56.31777       86.89481
C         48.24880       57.51098       86.05872
C         46.91552       58.06193       85.57196
O         45.86226       57.52270       85.87588
H         47.23212       55.92516       87.10832
H         48.86494       57.27609       85.16516
H         48.75083       58.31248       86.64272
N         46.92613       59.19838       84.81183
C         45.73797       59.91014       84.33985
C         45.79373       60.08080       82.81996
O         46.81596       60.50903       82.30708
C         45.66664       61.27778       85.06091
C         44.37298       62.03102       84.74071
O         46.76517       62.08672       84.72299
H         47.84345       59.61845       84.59930
H         44.81390       59.35751       84.62165
H         45.64949       61.09531       86.16307
H         47.49003       61.88187       85.36958
H         43.49129       61.42202       85.03584
H         44.34448       62.98330       85.31202
H         44.30538       62.26512       83.65781
N         44.71700       59.77318       82.03918
C         44.73796       59.83117       80.57234
C         45.06047       61.22196       80.02455
O         44.33729       62.16059       80.32420
C         43.39584       59.30604       79.93742
C         42.14896       60.19475       80.24286
C         43.15306       57.83841       80.34096
C         40.87035       59.74703       79.53165
H         43.86232       59.45243       82.51456
H         45.53363       59.13871       80.22208
H         43.54482       59.31452       78.83352
H         42.31270       61.22093       79.86937
H         41.95893       60.24492       81.33554
H         42.30234       57.40728       79.77651
H         44.04358       57.22161       80.10005
H         42.93226       57.74162       81.42345
H         41.03384       59.71260       78.43295
H         40.52676       58.75804       79.89174
H         40.06046       60.47942       79.73985
N         46.11476       61.41759       79.17016
C         46.30470       62.67438       78.43551
C         46.35322       62.46366       76.90608
O         46.23312       63.44619       76.18960
C         47.55120       63.41399       78.96697
C         47.59532       64.89255       78.56690
O         48.71590       62.76899       78.52130
H         46.77812       60.64376       79.02343
H         45.42895       63.32884       78.63692
H         47.48869       63.40961       80.08152
H         49.25645       62.53582       79.31800
H         47.65305       65.02654       77.46919
H         46.69038       65.41309       78.95034
H         48.48569       65.37488       79.02308
N         46.53292       61.22662       76.33711
C         46.58260       60.93210       74.89917
C         47.76665       61.57625       74.18713
O         48.18074       62.67074       74.54135
C         45.24759       61.20862       74.17684
C         44.10472       60.43348       74.84650
O         45.36062       60.79158       72.83878
H         46.64528       60.40583       76.94301
H         46.74673       59.83262       74.81297
H         45.03332       62.30013       74.20917
H         44.58950       61.17539       72.34599
H         43.15322       60.61676       74.30566
H         44.31674       59.34196       74.82877
H         43.97455       60.75695       75.90044
N         48.39346       60.89654       73.17897
C         49.60789       61.37093       72.52140
C         50.67808       61.56491       73.56567
O         51.17588       62.67340       73.70986
C         50.11434       60.33798       71.48609
C         49.27151       60.28011       70.20736
C         49.72890       59.08977       69.34328
C         49.11717       59.07985       67.93490
N         49.71125       60.11262       67.08157
H         48.01733       59.97575       72.90578
H         49.42124       62.34358       72.01110
H         50.15231       59.33500       71.96446
H         51.14901       60.60322       71.16941
H         49.40684       61.24756       69.68118
H         48.19155       60.15168       70.43744
H         49.42046       58.16243       69.87572
H         50.83572       59.06868       69.23886
H         48.01252       59.19915       67.98741
H         49.33325       58.09050       67.47383
H         49.30130       60.04287       66.12280
H         49.52628       61.06917       67.45523
H         50.74438       59.95880       67.00874
N         51.08197       60.51488       74.33195
C         52.10378       60.64006       75.35579
C         53.45285       60.28012       74.77369
O         53.52890       59.89735       73.61253
C         51.75067       59.75397       76.56705
C         50.35767       60.08719       77.11395
C         50.06610       59.32007       78.36237
O         49.85333       59.97961       79.51490
O         50.00955       58.10014       78.34235
H         50.67163       59.58335       74.16486
H         52.15884       61.69611       75.70437
H         52.50178       59.92325       77.36877
H         51.78208       58.67983       76.27638
H         49.57187       59.84885       76.36342
H         50.31208       61.17045       77.33954
N         54.58037       60.40800       75.52118
C         55.88523       60.09682       74.98315
H         56.66460       60.27416       75.75282
H         55.92013       59.03112       74.67223
H         56.09488       60.74506       74.10501
H         54.51577       60.74617       76.49292
Ca        49.15462       58.76631       81.25334
O         49.22036       62.11827       81.99592
H         49.91612       62.39205       82.64395
H         48.42703       62.65650       82.24275
O         51.78077       57.60650       82.12857
H         51.60100       56.63582       82.20588
H         52.75512       57.69450       82.27961
O         52.07577       60.81093       81.15610
H         51.72016       61.54472       80.59387
H         52.60014       60.25146       80.52955

Ca 1.0



