%chk=apoCaM-CA-Ng.loop3.water3.frame898.chk
%nprocshared=20
%mem=10GB
%nosave
#b3lyp/svp scf=(tight,noincore,xqc) Test 
#IOP(5/87=12) Density=Current Pop=(MK,readradii) iop(6/33=2) iop(6/42=6)

apoCaM-CA-Ng.loop3.water3.frame898 

   0  1 
C          4.33372      -12.42318       15.17536
C          3.65072      -13.39274       14.25564
O          3.54523      -14.56575       14.57743
H          5.19747      -11.95646       14.65783
H          3.61349      -11.62432       15.45949
H          4.68593      -12.92554       16.09974
N          3.13740      -12.93909       13.08410
C          2.34398      -13.74164       12.15725
C          3.13554      -14.90409       11.58248
O          4.24960      -14.67240       11.13347
C          1.85671      -12.82235       11.01779
C          0.68036      -13.36312       10.27493
O          0.12112      -12.65138        9.45706
O          0.10194      -14.51706       10.64076
H          3.27508      -11.93727       12.87315
H          1.45027      -14.10943       12.70429
H          2.68809      -12.56189       10.32791
H          1.47360      -11.88150       11.47177
N          2.60043      -16.16409       11.49514
C          3.33556      -17.28598       10.90396
C          2.88709      -17.61323        9.48105
O          3.59562      -18.36847        8.82821
C          3.33126      -18.52876       11.82549
C          1.94393      -19.18531       11.98936
C          1.94960      -20.42204       12.90867
C          2.81338      -21.58095       12.37811
N          2.70500      -22.75536       13.24424
H          1.62845      -16.31108       11.80258
H          4.39992      -16.98515       10.79417
H          3.72399      -18.23990       12.82470
H          4.02885      -19.26843       11.38152
H          1.54889      -19.48503       10.99446
H          1.24305      -18.45066       12.43629
H          0.89995      -20.78114       12.99187
H          2.29572      -20.13138       13.92433
H          3.87956      -21.27458       12.33169
H          2.47879      -21.85464       11.35286
H          3.02263      -22.52095       14.21279
H          1.71611      -23.09519       13.26911
H          3.31261      -23.51767       12.86523
N          1.76487      -17.07489        8.91572
C          1.41018      -17.24956        7.50413
C          1.28510      -15.90943        6.76888
O          1.01682      -15.92118        5.57691
C          0.14726      -18.12404        7.35577
C         -1.12759      -17.56909        7.92667
O         -1.17354      -16.36553        8.52622
O         -2.14717      -18.23321        7.84161
H          1.14089      -16.50589        9.50018
H          2.21391      -17.81191        6.97968
H          0.34767      -19.10217        7.84531
H         -0.02275      -18.31778        6.27358
N          1.52862      -14.71954        7.39387
C          1.52819      -13.42462        6.73154
C          0.16984      -12.82870        6.37577
O          0.18627      -11.70562        5.89883
H          1.84444      -14.72360        8.37048
H          2.17813      -13.46840        5.83056
H          1.99502      -12.69470        7.43006
N         -1.02810      -13.46958        6.56615
C         -2.31759      -12.83461        6.24143
C         -3.32893      -12.94125        7.38575
O         -3.10279      -13.67803        8.32283
C         -2.93375      -13.44847        4.95861
C         -3.31439      -14.90815        5.08323
N         -2.37238      -15.87700        5.13182
O         -4.49572      -15.21887        5.10861
H         -1.02842      -14.42807        6.92781
H         -2.15992      -11.75441        6.03637
H         -2.24954      -13.32051        4.09255
H         -3.85439      -12.87187        4.72179
H         -1.37587      -15.64385        5.05581
H         -2.64180      -16.86882        5.20817
N         -4.52204      -12.27412        7.30883
C         -5.64993      -12.49772        8.20987
C         -5.42905      -12.11211        9.65904
O         -5.19251      -10.94457        9.93406
H         -4.68067      -11.64271        6.51112
H         -5.94602      -13.56182        8.13806
H         -6.51371      -11.89881        7.84654
N         -5.54323      -13.05385       10.64781
C         -5.45276      -12.75961       12.08085
C         -4.04256      -13.13194       12.57063
O         -3.16078      -12.46274       11.73594
C         -6.53789      -13.55306       12.84550
C         -7.94547      -13.19451       12.45335
C         -8.44065      -11.90420       12.70085
C         -8.79152      -14.15872       11.88092
C         -9.76415      -11.58511       12.38631
C        -10.11386      -13.83637       11.56352
C        -10.60648      -12.55216       11.81839
O        -11.88878      -12.26162       11.52111
H         -5.67820      -14.03809       10.37136
H         -5.57771      -11.66851       12.26194
H         -6.47607      -13.37217       13.93583
H         -6.35471      -14.63705       12.67641
H         -7.80748      -11.15121       13.15331
H         -8.43247      -15.16231       11.68805
H        -10.13538      -10.58941       12.59288
H        -10.75866      -14.58924       11.12794
H        -12.27179      -11.39009       11.69546
N         -3.80223      -12.76612       13.98852
C         -2.44506      -13.02740       14.54137
C         -2.03445      -14.49101       14.36028
O         -1.99512      -14.95193       13.23294
C         -1.36735      -12.02790       13.99972
C          0.01088      -12.18140       14.69811
C         -1.85321      -10.56892       14.10005
C          0.03704      -11.89820       16.20489
H         -4.45776      -13.31555       14.58528
H         -2.51779      -12.81902       15.62959
H         -1.17356      -12.23767       12.92910
H          0.73648      -11.49390       14.21022
H          0.37651      -13.20821       14.53642
H         -1.07883       -9.87815       13.70189
H         -2.77312      -10.41748       13.49843
H         -2.08104      -10.28839       15.14891
H         -0.61538      -12.59749       16.76344
H          1.07250      -12.03579       16.58162
H         -0.26635      -10.85448       16.42381
N         -1.66946      -15.27435       15.42001
C         -1.25707      -16.67307       15.25288
C         -1.95556      -17.64340       16.19654
O         -1.71271      -18.83600       16.06120
C          0.25166      -16.79561       15.49826
O          0.95728      -15.97445       14.61305
H         -1.61134      -14.84244       16.35361
H         -1.46046      -17.01311       14.21389
H          0.59038      -17.84132       15.33522
H          0.48885      -16.54092       16.55993
H          1.21460      -15.17054       15.13066
N         -2.75717      -17.23349       17.22157
C         -3.25252      -18.16706       18.22904
C         -4.24200      -19.16602       17.65734
O         -4.90579      -18.83288       16.68534
C         -3.92216      -17.40337       19.36610
H         -2.94815      -16.23114       17.35254
H         -2.36746      -18.69695       18.64010
H         -3.18612      -16.72681       19.85139
H         -4.77920      -16.80730       18.99054
H         -4.30592      -18.11628       20.11050
N         -4.41493      -20.42388       18.16960
C         -3.62652      -21.02813       19.24603
C         -4.48035      -21.99459       20.05796
O         -5.12397      -22.83422       19.44259
C         -2.48356      -21.81954       18.60733
H         -5.06515      -21.04196       17.65778
H         -3.16229      -20.26979       19.89986
H         -1.83871      -21.13823       18.01305
H         -1.86034      -22.29464       19.39492
H         -2.87784      -22.60945       17.93187
N         -4.52138      -22.03448       21.42402
C         -3.77629      -21.18201       22.34915
C         -4.26906      -19.75619       22.29953
O         -3.44336      -18.85777       22.21628
C         -3.90727      -21.70524       23.79912
C         -3.21013      -23.06607       23.97506
C         -3.33824      -23.56438       25.38555
O         -2.84044      -22.84273       26.40815
O         -3.88111      -24.63425       25.61092
H         -5.11102      -22.77498       21.83715
H         -2.68918      -21.20607       22.10772
H         -4.98049      -21.77856       24.08379
H         -3.41297      -20.98346       24.48844
H         -2.12918      -22.96138       23.73570
H         -3.64708      -23.81597       23.28240
N         -5.60194      -19.47551       22.35540
C         -6.13859      -18.12973       22.30774
H         -6.76323      -17.94987       23.20653
H         -5.34326      -17.35547       22.27448
H         -6.77065      -18.01887       21.40115
H         -6.27737      -20.25260       22.40890
Ca        -2.06133      -14.13275       10.70479
O         -4.20297      -16.40368       11.81903
H         -4.22916      -17.01567       12.59674
H         -5.10381      -16.47629       11.41538
O         -4.59437      -16.08162        8.75074
H         -5.37141      -15.80378        8.20631
H         -4.19203      -16.81966        8.23234
O         -1.15155      -17.59432       11.28824
H         -0.67581      -18.22552       10.69223
H         -1.70317      -18.17477       11.86983

Ca 1.0



