%chk=apoCaM-CA-Ng.loop3.water5.frame435.chk
%nprocshared=20
%mem=10GB
%nosave
#b3lyp/svp scf=(tight,noincore,xqc) Test 
#IOP(5/87=12) Density=Current Pop=(MK,readradii) iop(6/33=2) iop(6/42=6)

apoCaM-CA-Ng.loop3.water5.frame435 

   0  1 
C         93.04768       65.13648      103.13064
C         92.18604       63.93618      103.38837
O         91.01747       64.11657      103.69683
H         94.08409       64.84257      102.86422
H         92.61869       65.73157      102.29737
H         93.08280       65.76698      104.04411
N         92.69880       62.67239      103.29071
C         91.93002       61.45540      103.54404
C         91.48453       61.35899      105.00535
O         90.62950       60.53612      105.30428
C         90.75475       61.35480      102.53432
C         90.07696       60.01125      102.55946
O         90.71064       58.99804      102.30934
O         88.76312       59.92118      102.84138
H         93.68718       62.55894      103.01993
H         92.59135       60.58208      103.34989
H         91.15114       61.50171      101.50629
H         89.99873       62.14329      102.72795
N         92.05250       62.13196      105.98200
C         91.61331       62.11333      107.37412
C         91.11617       63.47376      107.82424
O         90.62971       63.56297      108.94378
C         92.74451       61.65234      108.30505
C         93.21413       60.23292      107.97674
C         94.23436       59.75732      109.01435
C         94.71389       58.33642      108.70353
N         95.63497       57.86378      109.73574
H         92.83567       62.75737      105.74274
H         90.75720       61.41403      107.50011
H         92.35991       61.65851      109.34983
H         93.60279       62.35807      108.24315
H         93.66540       60.21425      106.96069
H         92.33993       59.54500      107.99483
H         93.75544       59.76698      110.01870
H         95.10700       60.44679      109.02852
H         95.22519       58.32764      107.71516
H         93.83974       57.64936      108.65474
H         95.14656       57.83057      110.66047
H         95.95858       56.90062      109.49053
H         96.46446       58.49765      109.79818
N         91.17450       64.57726      107.02034
C         90.60222       65.85045      107.42009
C         89.11384       65.65543      107.63296
O         88.50694       64.87795      106.90733
C         90.88019       66.93234      106.35272
C         90.50642       68.30073      106.85011
O         89.58755       69.04290      106.21010
O         91.05448       68.75706      107.84113
H         91.60796       64.52177      106.09323
H         91.09667       66.17153      108.36480
H         90.34379       66.69067      105.40975
H         91.96928       66.95712      106.12930
N         88.46556       66.30797      108.63097
C         87.05801       66.10944      108.93121
C         86.17912       66.30682      107.71900
O         85.38336       65.42766      107.41978
H         88.99352       66.97859      109.20855
H         86.76071       66.83168      109.72119
H         86.90312       65.08301      109.33099
N         86.29186       67.42773      106.95730
C         85.45426       67.69719      105.79161
C         86.23846       67.63504      104.47767
O         85.69168       68.00514      103.44904
C         84.65381       68.99569      106.03625
C         85.45980       70.25237      106.24157
N         84.83499       71.38470      106.63779
O         86.66614       70.26129      106.06152
H         87.01276       68.11654      107.21510
H         84.67590       66.91075      105.67969
H         84.06587       68.82928      106.96637
H         83.93083       69.16454      105.20954
H         83.81719       71.39556      106.80088
H         85.37117       72.24763      106.80073
N         87.45124       67.00529      104.41256
C         88.12404       66.65571      103.16613
C         88.88088       67.77840      102.49333
O         89.47900       67.51952      101.45882
H         87.85077       66.61025      105.27009
H         87.39126       66.20083      102.46429
H         88.88432       65.87765      103.39229
N         88.92323       69.03514      103.00794
C         89.67136       70.12986      102.39597
C         89.29744       71.40909      103.10092
O         89.50637       71.53225      104.29826
C         91.19761       69.88931      102.43735
C         91.98236       71.10892      101.99222
C         91.76887       71.69782      100.73203
C         92.93131       71.67961      102.85784
C         92.48291       72.84157      100.35600
C         93.64899       72.81569      102.47650
C         93.42425       73.40360      101.22479
O         94.10517       74.50489      100.84817
H         88.37659       69.23214      103.85838
H         89.35760       70.21514      101.33225
H         91.45800       69.03359      101.78062
H         91.48876       69.61814      103.47596
H         91.04213       71.28441      100.04510
H         93.11901       71.24492      103.83088
H         92.30223       73.29417       99.38895
H         94.37699       73.23907      103.15706
H         94.76582       74.92167      101.42014
N         88.66025       72.37968      102.40194
C         87.98848       73.49236      103.03659
C         86.58637       73.02230      103.38003
O         86.17069       73.22522      104.51164
C         88.06066       74.75016      102.12882
C         89.52899       75.14924      101.80886
C         87.30896       75.93751      102.74697
C         90.40826       75.45349      103.03046
H         88.46134       72.21388      101.40329
H         88.47612       73.75496      104.00149
H         87.56408       74.52294      101.15915
H         89.51721       76.04742      101.15362
H         90.01491       74.33161      101.23624
H         86.23770       75.69445      102.83028
H         87.70151       76.18946      103.75331
H         87.38498       76.83092      102.09223
H         90.53221       74.55595      103.67070
H         91.41988       75.75491      102.68739
H         89.99033       76.28346      103.63576
N         85.84445       72.27584      102.50254
C         84.55102       71.71335      102.88020
C         83.50360       72.79613      103.06633
O         82.48178       72.52857      103.68147
C         84.07375       70.66083      101.86788
O         83.85585       71.24841      100.61524
H         86.23391       72.04535      101.57709
H         84.69519       71.18227      103.84241
H         83.13116       70.19866      102.24006
H         84.85263       69.87086      101.77733
H         83.50158       70.52609      100.03385
N         83.69664       74.04299      102.54635
C         82.80100       75.17651      102.70923
C         82.73169       75.60601      104.16806
O         81.65424       75.81852      104.70575
C         81.43815       74.90720      102.05607
H         84.54468       74.22590      101.99156
H         83.26067       76.02910      102.16051
H         80.80707       75.81874      102.09669
H         81.58665       74.63161      100.98907
H         80.89821       74.08013      102.55995
N         83.89529       75.75067      104.86131
C         84.02053       76.21895      106.23332
C         85.06528       77.31514      106.28062
O         86.14067       77.11935      105.73170
C         84.48648       75.07200      107.12652
H         84.76640       75.48453      104.38872
H         83.04629       76.57273      106.63789
H         83.73858       74.25208      107.10667
H         85.47061       74.68155      106.79234
H         84.58360       75.43270      108.17409
N         84.83916       78.48106      106.94760
C         85.81003       79.57046      107.02775
C         86.04757       80.13492      105.63753
O         87.18139       80.18232      105.17790
C         87.13688       79.12809      107.70795
C         86.93427       78.54045      109.10994
C         88.25271       78.12660      109.70388
O         88.68847       78.69361      110.84474
O         88.93238       77.27024      109.15903
H         83.93652       78.60928      107.42978
H         85.36786       80.38305      107.64656
H         87.80860       80.01180      107.78676
H         87.65903       78.37490      107.08203
H         86.27681       77.64605      109.06082
H         86.45461       79.30122      109.76208
N         84.98706       80.56620      104.89999
C         85.10844       81.08558      103.55317
H         86.16131       81.11376      103.20170
H         84.52805       80.44027      102.86084
H         84.69775       82.11553      103.51726
H         84.03950       80.50851      105.30306
Ca        89.14228       71.08374      107.07597
O         91.84860       72.03069      106.14250
H         92.47824       71.35485      106.49879
H         92.13042       72.88189      106.56176
O         87.12783       72.55500      108.95880
H         87.34452       73.51548      109.05991
H         86.64988       72.31821      109.79284
O         87.98580       69.53331      109.30806
H         88.41953       69.18016      110.12443
H         87.04859       69.70475      109.57595
O         90.60352       71.86128      109.59466
H         90.17705       72.58267      110.12178
H         91.29804       72.32174      109.05995
O         89.37178       74.05809      106.91995
H         88.53671       74.58967      106.90670
H         90.01388       74.61114      107.43182

Ca 1.0



