%chk=apoCaM-CA-Ng.loop1.water3.frame469.chk
%nprocshared=20
%mem=10GB
%nosave
#b3lyp/svp scf=(tight,noincore,xqc) Test 
#IOP(5/87=12) Density=Current Pop=(MK,readradii) iop(6/33=2) iop(6/42=6)

apoCaM-CA-Ng.loop1.water3.frame469 

   0  1 
C         51.51043       27.01234       76.64151
C         50.43069       27.22325       75.62018
O         49.31006       26.79378       75.84616
H         52.47376       27.45748       76.31231
H         51.21488       27.48992       77.59887
H         51.66311       25.92553       76.80347
N         50.69936       27.89629       74.46827
C         49.70439       28.17641       73.43680
C         49.31725       26.93613       72.62272
O         48.57571       27.10668       71.67175
C         50.24813       29.25009       72.45438
C         50.52611       30.57879       73.11372
O         51.47386       30.69477       74.06291
O         49.90749       31.57238       72.76538
H         51.65404       28.26424       74.34207
H         48.79163       28.61130       73.90385
H         49.48587       29.43513       71.66999
H         51.16972       28.88408       71.95235
N         49.77741       25.67566       72.88276
C         49.56023       24.55611       71.96443
C         48.70183       23.45411       72.57936
O         48.99906       23.07482       73.70302
C         50.92580       23.95660       71.57089
C         51.92726       24.94408       70.94253
C         51.38596       25.65587       69.69186
C         52.45537       26.48695       68.96190
N         53.43079       25.63788       68.27432
H         50.35973       25.49682       73.71061
H         49.09145       24.90582       71.04072
H         50.75547       23.12993       70.84933
H         51.40902       23.51928       72.47229
H         52.82335       24.34496       70.68658
H         52.22906       25.71272       71.68767
H         50.57726       26.34504       70.01367
H         50.96219       24.92305       68.97472
H         52.96343       27.17736       69.67021
H         51.95524       27.11204       68.19407
H         53.98215       25.06665       68.95083
H         52.93798       25.00839       67.59832
H         54.09121       26.24427       67.73729
N         47.68394       22.79658       71.92203
C         47.19119       23.01964       70.55882
C         48.30934       22.94020       69.52430
O         48.60483       23.95244       68.90341
C         46.37917       24.33173       70.43613
C         45.12227       24.37341       71.25312
O         44.39772       25.35141       71.16767
O         44.76587       23.35049       72.05381
H         47.23334       22.01873       72.42944
H         46.45867       22.22328       70.29834
H         46.05188       24.42618       69.37975
H         46.98720       25.21060       70.70295
N         48.96447       21.78765       69.20756
C         48.61839       20.46184       69.71415
C         49.36841       19.36482       68.96115
O         50.28888       19.67279       68.21698
H         49.69354       21.87739       68.48363
H         47.54208       20.30031       69.50589
H         48.78633       20.38674       70.80892
N         49.00697       18.05083       69.00352
C         47.93369       17.47646       69.80520
C         46.75505       17.13549       68.91695
O         46.93779       16.45719       67.91370
C         48.42123       16.22228       70.57161
C         48.85549       15.06435       69.70024
O         49.83354       15.15464       68.97607
O         48.17476       13.90295       69.74297
H         49.50512       17.42407       68.35525
H         47.59243       18.20005       70.57495
H         47.57623       15.87230       71.20439
H         49.25900       16.49738       71.24644
N         45.49837       17.56208       69.23686
C         44.35133       17.28800       68.39132
C         44.49711       18.06129       67.11271
O         44.64487       17.46414       66.05711
H         45.34473       18.08544       70.11223
H         43.41414       17.61458       68.89223
H         44.28102       16.19321       68.20673
N         44.48023       19.42239       67.15888
C         44.73408       20.27636       66.00509
C         45.91602       21.18859       66.33290
O         46.38105       21.17818       67.46157
C         43.41396       21.00506       65.63627
C         43.43554       21.75678       64.30230
O         43.02551       21.88668       66.65880
H         44.29362       19.87722       68.06670
H         45.02479       19.64736       65.13600
H         42.63971       20.21250       65.49262
H         42.44669       21.37628       67.28314
H         42.41388       22.11933       64.06384
H         44.08128       22.64864       64.33443
H         43.76746       21.08261       63.48346
N         46.48267       21.97641       65.38071
C         47.64984       22.82442       65.62052
C         47.29145       24.30549       65.48787
O         48.19313       25.12259       65.37587
C         48.82481       22.36896       64.69717
C         48.51909       22.58113       63.18928
C         49.17755       20.90044       65.01232
C         49.66191       22.15987       62.26339
H         46.09437       21.95737       64.43306
H         48.02411       22.70969       66.65796
H         49.71746       22.98202       64.95614
H         48.32682       23.66155       63.01750
H         47.62014       22.01303       62.87744
H         49.38808       20.78714       66.09408
H         48.34244       20.21964       64.74168
H         50.09054       20.57551       64.47477
H         49.82868       21.06373       62.31022
H         49.39332       22.40530       61.21449
H         50.59941       22.69098       62.52920
N         45.99109       24.72416       65.54260
C         45.54564       26.11120       65.36805
C         46.03963       27.09979       66.43157
O         45.83964       28.29108       66.23954
C         43.99412       26.16705       65.29208
C         43.31289       25.72683       66.60508
O         43.56111       25.34699       64.23673
H         45.26837       24.00740       65.66849
H         45.94596       26.45436       64.38812
H         43.70057       27.21997       65.07508
H         42.61079       25.57382       64.06181
H         43.54934       24.67513       66.86569
H         43.62445       26.37425       67.45007
H         42.21067       25.80565       66.50057
N         46.66981       26.69326       67.57008
C         47.20828       27.57548       68.61281
C         46.12383       28.39086       69.33211
O         44.98511       28.40038       68.88740
C         48.34045       28.48139       68.05252
C         49.33624       27.67937       67.20989
O         49.03012       29.08238       69.11608
H         46.81043       25.68624       67.71300
H         47.66722       26.90585       69.36487
H         47.89486       29.26767       67.40369
H         49.57384       29.82014       68.73423
H         50.17680       28.32697       66.88428
H         49.72424       26.81984       67.78741
H         48.84715       27.29996       66.29483
N         46.41377       29.08433       70.47939
C         45.46341       29.94868       71.18331
C         45.04074       29.36998       72.53840
O         44.16956       29.94589       73.17546
C         46.09340       31.35404       71.38581
C         46.80715       31.91695       70.13992
C         45.89911       32.07852       68.91662
C         46.73228       32.44342       67.67954
N         45.88967       32.53624       66.48914
H         47.35694       29.01739       70.87525
H         44.53825       30.04781       70.57652
H         46.87904       31.27525       72.17122
H         45.32095       32.06603       71.75009
H         47.64020       31.22986       69.88369
H         47.26489       32.89928       70.39081
H         45.13092       32.85615       69.11863
H         45.38841       31.12013       68.69915
H         47.49764       31.65274       67.51251
H         47.26193       33.40802       67.84167
H         46.49394       32.72665       65.65737
H         45.38444       31.63282       66.33523
H         45.20028       33.31425       66.59878
N         45.60724       28.23197       73.03490
C         45.21803       27.56846       74.27811
C         45.37390       28.47004       75.49010
O         46.45981       28.98535       75.72148
C         46.11531       26.32211       74.47341
C         45.79209       25.43971       75.69080
C         44.50777       24.68641       75.50950
O         43.43541       25.26766       75.48904
O         44.55180       23.35212       75.33183
H         46.34625       27.78081       72.48543
H         44.16176       27.24414       74.17753
H         47.15997       26.67622       74.57482
H         46.07619       25.68165       73.56658
H         45.78555       26.01854       76.63951
H         46.60931       24.68993       75.76270
N         44.33370       28.64295       76.35223
C         44.46485       29.40040       77.57837
H         43.50945       29.37215       78.14530
H         45.25794       28.95061       78.21513
H         44.72183       30.45613       77.35461
H         43.42934       28.18665       76.15889
Ca        42.72464       22.17908       74.72327
O         41.82006       24.89284       72.80644
H         42.69870       25.27470       73.05175
H         41.63966       25.25528       71.90329
O         39.90514       22.36381       73.78218
H         39.75653       23.26899       74.15488
H         39.74292       21.75219       74.54390
O         41.80564       21.87492       71.22041
H         42.33173       21.27241       70.63668
H         41.02517       22.13571       70.66950

Ca 1.0



