%chk=apoCaM-CA-Ng.loop4.water2.frame473.chk
%nprocshared=20
%mem=10GB
%nosave
#b3lyp/svp scf=(tight,noincore,xqc) Test 
#IOP(5/87=12) Density=Current Pop=(MK,readradii) iop(6/33=2) iop(6/42=6)

apoCaM-CA-Ng.loop4.water2.frame473 

   -3  1 
C         36.51219       41.77720       11.20817
C         36.27623       41.75415       12.68741
O         35.67756       40.80801       13.17313
H         37.60369       41.79286       11.00752
H         36.07381       40.87661       10.72601
H         36.04326       42.68238       10.76958
N         36.74834       42.76817       13.46877
C         36.59784       42.84747       14.91834
C         37.23951       41.65208       15.60433
O         36.56167       40.67285       15.85699
C         35.15604       43.21552       15.36963
C         34.03895       42.29962       14.93907
O         33.97063       41.03199       15.38054
O         33.15502       42.72293       14.21073
H         37.27877       43.52443       13.00931
H         37.18495       43.73064       15.25900
H         34.93730       44.22269       14.94866
H         35.13130       43.30948       16.47703
N         38.58717       41.66305       15.85206
C         39.38928       40.59908       16.46952
C         39.15701       40.50760       17.97951
O         40.09106       40.78951       18.71842
C         39.26415       39.23893       15.72108
C         40.13210       38.11338       16.34757
C         39.58227       39.40315       14.22296
C         41.64253       38.36439       16.33331
H         39.11278       42.49518       15.54198
H         40.44933       40.92014       16.35727
H         38.22062       38.89064       15.79391
H         39.93370       37.16623       15.79994
H         39.82260       37.95282       17.40062
H         40.61110       39.78709       14.06758
H         39.48158       38.42912       13.69952
H         38.87622       40.11589       13.74763
H         41.90435       39.26888       16.91849
H         42.15820       37.49826       16.79853
H         42.02209       38.46865       15.29699
N         37.95852       40.15304       18.52208
C         37.71009       40.15202       19.95928
C         38.47932       39.03847       20.68925
O         39.25719       39.40758       21.55804
C         36.19606       40.18075       20.25790
C         35.50415       41.43379       19.77124
O         36.11555       42.31820       19.19095
O         34.18269       41.57904       19.98424
H         37.17285       39.93071       17.90647
H         38.07429       41.12077       20.37699
H         36.04313       40.12511       21.35744
H         35.69280       39.34028       19.76644
N         38.41166       37.68882       20.43589
C         37.62513       37.01971       19.41180
C         36.16441       36.85702       19.78325
O         35.79403       37.27251       20.87281
H         39.05429       37.08299       20.97049
H         38.02352       35.99223       19.26905
H         37.76910       37.57400       18.47412
N         35.23394       36.26763       18.96550
C         35.47355       35.56209       17.69983
C         36.49812       36.25522       16.75495
O         36.29576       37.62485       16.56928
C         34.11928       35.05534       17.07662
C         32.87983       35.95216       17.01836
O         31.90373       35.64529       17.68445
O         32.77128       37.02100       16.20922
H         34.26173       36.27780       19.31230
H         36.03098       34.63544       17.95403
H         33.81294       34.21723       17.74174
H         34.29091       34.60897       16.07708
N         36.75690       35.60335       15.46090
C         37.10158       34.16848       15.43149
C         38.46624       33.81202       15.98696
O         39.06711       34.60079       16.70268
H         37.53846       36.12216       14.99828
H         37.12138       33.89058       14.35641
H         36.32260       33.53218       15.89674
N         39.02560       32.61187       15.63841
C         40.32732       32.14073       16.10773
C         41.40448       32.19108       15.02381
O         42.55797       31.97445       15.36874
C         40.19549       30.76326       16.81213
C         39.51022       29.63424       16.01423
C         40.26352       29.19325       14.79429
N         41.48817       28.63215       14.90231
O         39.74416       29.30651       13.69655
H         38.50893       32.01882       14.97254
H         40.71056       32.84297       16.88110
H         39.56691       30.92186       17.71506
H         41.19383       30.42599       17.16713
H         38.48383       29.94826       15.73226
H         39.39862       28.74684       16.67357
H         41.93350       28.50329       15.82171
H         41.98118       28.30116       14.06349
N         41.13780       32.57532       13.73693
C         42.19010       32.94463       12.78047
C         42.22783       32.08736       11.52017
O         43.07636       32.35572       10.67875
C         42.04843       34.45115       12.40742
C         42.17416       35.34446       13.65205
C         40.73444       34.76053       11.67126
H         40.16099       32.71271       13.44969
H         43.19350       32.82436       13.24566
H         42.88526       34.72158       11.72521
H         43.14960       35.16664       14.15282
H         42.12523       36.41597       13.36263
H         41.35706       35.14168       14.37707
H         39.85308       34.55970       12.31148
H         40.70943       35.83184       11.38108
H         40.64600       34.15351       10.74607
N         41.39330       31.02998       11.32278
C         41.45667       30.17095       10.14256
C         40.12025       30.06181        9.42048
O         40.07547       29.34780        8.42929
C         41.94348       28.77097       10.57013
C         43.36446       28.81121       11.08200
N         44.38402       29.16756       10.26520
O         43.60264       28.50343       12.23829
H         40.71875       30.78531       12.05675
H         42.17430       30.56823        9.39192
H         41.92673       28.07032        9.70756
H         41.25697       28.37264       11.35034
H         44.21352       29.41048        9.27878
H         45.35279       29.18683       10.61700
N         39.00114       30.74214        9.81699
C         37.72049       30.60502        9.11703
C         36.69573       31.63551        9.56212
O         36.78377       32.13512       10.67056
C         37.15793       29.16315        9.25089
C         37.15216       28.64745       10.68164
C         37.99723       27.57715       11.03314
C         36.32855       29.21073       11.67411
C         38.02850       27.09245       12.34326
C         36.36427       28.72548       12.98676
C         37.21397       27.66840       13.32669
O         37.24373       27.21885       14.59786
H         39.06529       31.38954       10.61303
H         37.90188       30.83158        8.04250
H         37.80278       28.49590        8.64379
H         36.14256       29.08865        8.80535
H         38.64345       27.11904       10.29480
H         35.65465       30.02182       11.44316
H         38.69170       26.27373       12.59357
H         35.73132       29.17360       13.74255
H         37.82863       26.49910       14.87567
N         35.67149       31.95966        8.71005
C         34.59218       32.92557        8.93251
C         35.04746       34.38486        8.83236
O         34.51719       35.09542        7.98944
C         33.80259       32.62902       10.22154
C         32.46745       33.39549       10.23842
C         31.68923       33.12251       11.49099
O         31.34970       34.13956       12.30567
O         31.34299       31.98508       11.76809
H         35.63356       31.45225        7.81238
H         33.87368       32.77188        8.09254
H         34.40798       32.88978       11.11511
H         33.57083       31.54122       10.25308
H         31.85122       33.08298        9.36556
H         32.65318       34.48782       10.16067
N         36.01555       34.90388        9.64111
C         36.47721       36.28770        9.59629
C         36.88762       36.69059        8.19588
O         36.35879       37.67314        7.69364
C         37.68737       36.49688       10.54316
C         37.43019       36.24662       12.03918
C         36.41633       37.19020       12.61129
O         35.24311       37.11517       12.28737
O         36.79884       38.11426       13.51005
H         36.46065       34.29489       10.32211
H         35.64956       36.96009        9.90334
H         38.05275       37.54253       10.43936
H         38.50811       35.81989       10.22254
H         38.39297       36.41736       12.56660
H         37.12701       35.19905       12.24486
N         37.81667       35.97597        7.50346
C         38.25331       36.33239        6.16874
H         39.35338       36.47609        6.17051
H         37.99266       35.51521        5.46519
H         37.78339       37.27086        5.80439
H         38.22665       35.13232        7.93135
Ca        34.55707       37.75168       15.20504
O         33.66854       39.36800       17.71296
H         33.75758       38.71811       18.45327
H         34.56974       39.76649       17.62182
O         32.86013       39.26729       12.88148
H         32.92670       38.54544       12.20729
H         33.05444       40.09630       12.37625

Ca 1.0



