%chk=apoCaM-CA-Ng.loop2.water4.frame1410.chk
%nprocshared=20
%mem=10GB
%nosave
#b3lyp/svp scf=(tight,noincore,xqc) Test 
#IOP(5/87=12) Density=Current Pop=(MK,readradii) iop(6/33=2) iop(6/42=6)

apoCaM-CA-Ng.loop2.water4.frame1410 

   -2  1 
C         67.49048       82.27560      105.03510
C         67.39722       81.33410      103.86134
O         68.44310       80.82611      103.48335
H         68.17806       83.10598      104.77032
H         66.54702       82.72971      105.37124
H         67.91735       81.72562      105.89966
N         66.24624       81.01461      103.19641
C         64.89512       81.50674      103.47297
C         64.33013       82.31067      102.30305
O         63.17759       82.71446      102.38549
C         63.96395       80.33569      103.87962
C         63.75963       79.26858      102.84408
O         64.32289       79.32610      101.76926
O         62.94522       78.22956      103.10829
H         66.35327       80.35931      102.40783
H         64.87290       82.19232      104.33283
H         62.96469       80.74856      104.13830
H         64.37757       79.85163      104.78982
N         65.08845       82.65069      101.21631
C         64.57801       83.51471      100.15499
C         63.53774       82.84003       99.27172
O         62.93826       83.53800       98.46501
C         65.73382       84.00122       99.26890
H         66.07894       82.36925      101.18080
H         64.12635       84.41225      100.63394
H         66.22533       83.14112       98.76389
H         65.36632       84.70893       98.49515
H         66.48986       84.52993       99.88804
N         63.32571       81.49108       99.29861
C         62.44186       80.80659       98.36649
C         61.32539       79.94234       99.05182
O         61.69131       79.02652      100.05445
C         63.24933       80.16569       97.18927
C         64.71153       79.74180       97.35840
O         65.09113       78.70094       98.11537
O         65.57358       80.32810       96.72241
H         63.88758       80.90426       99.92554
H         61.81254       81.54281       97.81445
H         63.32097       80.97508       96.42554
H         62.64120       79.37663       96.70602
N         60.18622       80.77438       99.49333
C         59.15654       80.01250      100.22671
C         58.53225       78.86001       99.45599
O         57.80999       78.09608      100.08045
H         60.54554       81.51943      100.13549
H         58.34423       80.69974      100.54811
H         59.60935       79.60586      101.15829
N         58.74482       78.66274       98.12068
C         58.22696       77.51306       97.38435
C         59.39989       76.77344       96.76297
O         59.63029       75.62341       97.11033
C         57.19019       77.98847       96.34984
C         56.57058       76.84090       95.58811
N         55.24933       76.56871       95.70190
O         57.26606       76.15334       94.85546
H         59.29370       79.35401       97.59095
H         57.69969       76.81519       98.07386
H         57.64226       78.70469       95.63169
H         56.39470       78.53281       96.90526
H         54.64168       77.13100       96.31536
H         54.83113       75.78556       95.17822
N         60.21109       77.39656       95.86009
C         61.43859       76.81997       95.32556
C         62.48006       76.65553       96.41902
O         62.13278       76.80483       97.58125
H         59.97533       78.35417       95.55921
H         61.83721       77.54745       94.58924
H         61.24448       75.86282       94.79707
N         63.80406       76.43696       96.17322
C         64.43206       76.32443       94.86073
C         65.49461       75.23023       94.89271
O         65.44831       74.34038       94.05648
C         65.07649       77.67760       94.46377
C         65.69701       77.61727       93.05864
O         64.08911       78.67468       94.47083
H         64.42132       76.46019       96.99636
H         63.67154       76.09034       94.08305
H         65.86530       77.93264       95.20779
H         64.55555       79.54845       94.40569
H         66.14603       78.59985       92.80100
H         66.49708       76.85333       93.00412
H         64.91743       77.37713       92.30385
N         66.49282       75.25487       95.83083
C         67.60821       74.31492       95.89050
C         67.46379       73.43334       97.13151
O         67.30466       73.98809       98.21062
C         68.95616       75.09794       95.98123
C         69.13808       76.15692       94.86535
C         70.16414       74.13988       96.02820
C         69.17447       75.60044       93.44136
H         66.48082       75.99204       96.55067
H         67.63567       73.70653       94.97115
H         68.95682       75.66634       96.93916
H         70.08828       76.70514       95.05008
H         68.31627       76.90095       94.93141
H         70.23106       73.52354       95.10869
H         71.10546       74.71605       96.14132
H         70.09224       73.45190       96.89609
H         69.30963       76.44217       92.73003
H         70.02280       74.90018       93.30498
H         68.22535       75.08538       93.19218
N         67.57599       72.06895       97.11434
C         67.84993       71.27435       95.91788
C         68.55226       69.95279       96.22922
O         68.74139       69.59420       97.38165
C         66.54376       71.06424       95.11127
C         65.45046       70.42750       95.92756
O         64.40116       71.02468       96.11219
O         65.61379       69.19755       96.44992
H         67.52708       71.58543       98.02417
H         68.60047       71.80086       95.29676
H         66.73056       70.44454       94.21042
H         66.17424       72.04129       94.75155
N         68.98034       69.18616       95.18478
C         69.62299       67.88302       95.30097
C         70.91205       67.85958       94.46724
O         70.82995       68.23070       93.30514
C         68.65352       66.84511       94.69493
C         69.21921       65.44824       94.74654
C         69.72231       64.85184       93.57827
C         69.26531       64.73799       95.95770
C         70.27458       63.57019       93.62311
C         69.80767       63.44918       95.99553
C         70.31550       62.86790       94.82995
H         68.79741       69.52888       94.23030
H         69.79877       67.60878       96.36002
H         68.46257       67.13326       93.63707
H         67.66861       66.86163       95.21125
H         69.70662       65.38781       92.63733
H         68.88004       65.18069       96.86808
H         70.67395       63.12435       92.72163
H         69.83821       62.90214       96.92875
H         70.74204       61.87404       94.86108
N         72.10336       67.33533       94.91187
C         72.34084       66.73422       96.21302
C         72.42137       67.76627       97.31255
O         71.64532       67.70322       98.25372
C         73.67378       65.97377       96.04466
C         73.67671       65.67954       94.55421
C         73.19105       67.01621       94.00841
H         71.54707       65.98467       96.40002
H         74.54641       66.64178       96.21126
H         73.79470       65.09683       96.71519
H         74.65609       65.34620       94.14952
H         72.90748       64.90360       94.33923
H         73.99211       67.78047       94.12493
H         72.89659       66.94472       92.93926
N         73.36869       68.74568       97.25180
C         73.54130       69.76401       98.27236
C         74.59794       69.28882       99.25886
O         75.72877       69.07898       98.84260
C         73.99036       71.08569       97.61167
C         72.95754       71.60611       96.60123
C         73.46955       72.83264       95.90216
O         73.60255       72.83535       94.68840
O         73.78537       73.93513       96.60786
H         74.02905       68.75213       96.46037
H         72.57283       69.95558       98.77684
H         74.95536       70.91599       97.08145
H         74.15694       71.85623       98.39659
H         72.01031       71.84648       97.12779
H         72.74541       70.82523       95.83814
N         74.33772       69.07034      100.57982
C         73.03783       69.24981      101.18837
H         72.29711       68.57510      100.71035
H         73.08869       68.99512      102.26812
H         72.71070       70.30622      101.09147
H         75.10675       68.74465      101.18626
Ca        63.62338       78.07935       99.57107
O         65.67587       76.72473      101.73359
H         66.30499       76.23602      101.14633
H         65.91594       76.44089      102.65124
O         60.58550       76.34784      100.68573
H         60.14900       76.55714      101.54964
H         60.23127       75.45780      100.43619
O         64.02966       74.69669       99.03206
H         64.96615       74.90324       99.27732
H         64.10050       74.17814       98.19168
O         63.19459       74.94119      101.89186
H         62.39090       74.91775      102.46914
H         63.53466       74.01121      101.89978

Ca 1.0



