%chk=apoCaM-CA-Ng.loop3.water5.frame1078.chk
%nprocshared=20
%mem=10GB
%nosave
#b3lyp/svp scf=(tight,noincore,xqc) Test 
#IOP(5/87=12) Density=Current Pop=(MK,readradii) iop(6/33=2) iop(6/42=6)

apoCaM-CA-Ng.loop3.water5.frame1078 

   0  1 
C         28.25350       79.92087       14.09324
C         28.22200       81.41869       14.14185
O         29.24952       82.02389       14.41131
H         27.25870       79.50410       13.82735
H         28.99291       79.58672       13.33761
H         28.54029       79.52868       15.09157
N         27.05537       82.08368       13.92642
C         26.92356       83.52766       14.02052
C         26.17106       83.87255       15.29231
O         26.71537       84.61358       16.09997
C         26.34168       84.12910       12.71044
C         25.11336       83.46249       12.13083
O         25.17250       82.95238       11.02338
O         23.93992       83.45388       12.78144
H         26.20201       81.53469       13.74176
H         27.92037       84.01322       14.13322
H         27.13790       84.04331       11.93755
H         26.14737       85.21397       12.85712
N         24.93536       83.36831       15.55811
C         24.16918       83.70992       16.74613
C         23.04652       84.63347       16.30813
O         21.87718       84.31400       16.47593
C         23.64612       82.42310       17.42959
C         24.75291       81.48840       17.95154
C         24.12130       80.21884       18.55131
C         25.16659       79.25959       19.13740
N         24.52405       78.05231       19.66245
H         24.49215       82.73576       14.88318
H         24.78035       84.27901       17.48174
H         23.01914       81.86525       16.69906
H         23.00651       82.71151       18.29293
H         25.34636       82.01899       18.72826
H         25.43200       81.19583       17.12087
H         23.55541       79.68929       17.75327
H         23.41221       80.50447       19.35903
H         25.71675       79.76922       19.95939
H         25.89721       78.97003       18.35016
H         25.25064       77.42383       20.07519
H         23.83298       78.30255       20.40697
H         24.03622       77.54036       18.89130
N         23.36003       85.82592       15.72169
C         22.36688       86.77464       15.23645
C         22.84832       87.41669       13.93869
O         22.96903       88.62843       13.83860
C         21.93088       87.73790       16.36713
C         23.01880       88.52004       17.11842
O         23.90444       87.67387       17.79485
O         23.77443       89.34828       16.28518
H         24.35550       86.07614       15.61242
H         21.44340       86.22616       14.94337
H         21.40817       87.13206       17.13931
H         21.18779       88.45494       15.95952
N         23.12133       86.60523       12.88092
C         23.60963       87.03371       11.57763
C         22.67255       86.57385       10.47396
O         21.58393       86.11059       10.78568
H         22.98047       85.59683       13.01205
H         24.58949       86.53622       11.43036
H         23.75756       88.13342       11.51699
N         23.00767       86.60303        9.14871
C         24.28126       87.05748        8.60305
C         25.01341       85.85426        8.00172
O         24.41284       85.15169        7.20121
C         24.04114       88.10561        7.49729
C         25.35031       88.69458        7.02022
N         25.81547       88.45009        5.77300
O         26.00515       89.39256        7.78051
H         22.32107       86.22322        8.47701
H         24.88078       87.54924        9.39049
H         23.40654       88.93633        7.87328
H         23.50027       87.62171        6.65416
H         25.29317       87.84913        5.11987
H         26.71854       88.84411        5.46790
N         26.31195       85.55114        8.28791
C         27.12911       86.37417        9.15647
C         28.57241       85.95578        9.23794
O         28.98987       84.97715        8.63010
H         26.72679       84.72701        7.82512
H         26.70192       86.36905       10.18176
H         27.13993       87.40894        8.76430
N         29.39963       86.69514       10.02034
C         30.81458       86.39687       10.21498
C         31.36609       87.20612       11.38778
O         30.71669       88.14625       11.83472
C         31.59568       86.72560        8.91259
C         33.02227       86.23521        8.90437
C         34.09842       87.13958        8.90660
C         33.28587       84.85650        8.86014
C         35.41571       86.66894        8.87602
C         34.60231       84.38888        8.81747
C         35.67269       85.29448        8.82776
O         36.94745       84.85674        8.78632
H         28.96101       87.47873       10.52892
H         30.88527       85.31952       10.48325
H         31.55873       87.82866        8.76605
H         31.10254       86.27320        8.02612
H         33.92095       88.20716        8.93577
H         32.47000       84.14478        8.84081
H         36.23812       87.37343        8.88383
H         34.78839       83.32323        8.77156
H         37.16703       83.91489        8.74310
N         32.55141       86.88372       11.97284
C         33.08568       87.66548       13.09053
C         33.37524       89.10209       12.67710
O         33.30135       89.43205       11.50130
C         34.33754       87.00977       13.75614
C         33.90690       85.79774       14.61481
C         35.44976       86.66699       12.74227
C         35.04205       85.23320       15.47066
H         33.04682       86.04861       11.63292
H         32.29133       87.73774       13.86779
H         34.76079       87.74390       14.47349
H         33.47048       84.99521       13.98365
H         33.12307       86.14351       15.32631
H         36.36937       86.33920       13.26702
H         35.15271       85.84510       12.05977
H         35.71286       87.55863       12.13680
H         35.48321       86.03492       16.10256
H         34.64218       84.44320       16.14031
H         35.83367       84.78309       14.83966
N         33.68695       90.02053       13.63704
C         33.94009       91.42761       13.36122
C         33.00035       92.31496       14.16486
O         32.23479       91.81784       14.97922
C         35.40525       91.74111       13.69279
O         35.66063       91.48487       15.04799
H         33.74414       89.71175       14.61916
H         33.77584       91.64784       12.28371
H         35.63754       92.80341       13.46601
H         36.04477       91.09050       13.05227
H         36.64623       91.41914       15.13939
N         33.01767       93.66426       13.96609
C         32.18677       94.62734       14.67935
C         32.53191       94.72384       16.16009
O         31.67398       95.11884       16.93822
C         30.68924       94.38463       14.42171
H         33.65812       94.04373       13.25282
H         32.41280       95.63276       14.26021
H         30.34841       93.41898       14.84711
H         30.08275       95.19561       14.87928
H         30.49067       94.38554       13.32891
N         33.80341       94.47516       16.60815
C         34.26480       94.71937       17.97711
C         33.54624       93.90434       19.04959
O         33.81536       94.13611       20.22090
C         34.16262       96.22275       18.28991
H         34.51357       94.15398       15.93386
H         35.34495       94.45883       18.03577
H         34.60778       96.44452       19.28307
H         34.72168       96.80479       17.52676
H         33.11034       96.57281       18.30261
N         32.61654       92.95393       18.74787
C         31.81400       92.28467       19.76483
C         32.67163       91.48021       20.72532
O         32.65666       91.77917       21.91215
C         30.72879       91.43334       19.07774
C         29.73705       90.81096       20.06521
C         28.59143       90.19376       19.31876
O         28.78897       89.29455       18.51793
O         27.33932       90.64944       19.51471
H         32.42565       92.73191       17.76172
H         31.27949       93.07345       20.34267
H         31.18939       90.63949       18.44873
H         30.15840       92.11691       18.40848
H         29.33520       91.60208       20.73467
H         30.24234       90.04100       20.68727
N         33.44603       90.44878       20.29334
C         34.26623       89.68032       21.20711
H         35.00562       90.34427       21.70498
H         33.62817       89.19969       21.98000
H         34.81449       88.88801       20.65573
H         33.45693       90.20149       19.29289
Ca        25.76545       88.85230       17.26032
O         26.97657       91.05650       15.63385
H         26.71429       91.46682       14.77194
H         27.93804       90.84472       15.52904
O         26.98839       87.40030       19.85516
H         26.26916       86.72076       19.84850
H         26.75269       88.00689       20.60137
O         24.42411       89.86172       20.17697
H         23.91150       90.68638       20.37016
H         24.78976       89.58606       21.05474
O         28.18558       87.67883       15.91168
H         27.29458       87.33693       15.64765
H         28.40589       87.18124       16.73899
O         24.75550       91.99493       17.77832
H         25.39425       92.74298       17.89102
H         24.14971       92.29170       17.05349

Ca 1.0



