%chk=apoCaM-CA-Ng.loop2.water4.frame235.chk
%nprocshared=20
%mem=10GB
%nosave
#b3lyp/svp scf=(tight,noincore,xqc) Test 
#IOP(5/87=12) Density=Current Pop=(MK,readradii) iop(6/33=2) iop(6/42=6)

apoCaM-CA-Ng.loop2.water4.frame235 

   -2  1 
C         27.38786        6.44210      101.04477
C         27.19249        5.80641      102.38858
O         27.67920        6.35045      103.36970
H         26.96508        7.46741      101.05002
H         28.47522        6.49652      100.82239
H         26.89669        5.85329      100.24201
N         26.52473        4.62319      102.50388
C         26.37976        3.90636      103.76275
C         27.25000        2.66605      103.67012
O         26.77158        1.54498      103.77686
C         24.88377        3.63297      104.02708
C         24.64309        3.00580      105.37275
O         24.09722        1.91731      105.45605
O         25.00374        3.65693      106.49559
H         26.15685        4.17296      101.65123
H         26.76908        4.51546      104.60889
H         24.47464        2.98522      103.22025
H         24.33118        4.59747      104.00622
N         28.58125        2.83986      103.43698
C         29.55662        1.77432      103.27980
C         30.20334        1.88680      101.91389
O         30.67268        2.96520      101.57148
C         30.63049        1.91917      104.35889
H         28.93589        3.80615      103.35945
H         29.09062        0.77130      103.40050
H         31.39124        1.11697      104.24645
H         31.13786        2.90554      104.28042
H         30.17069        1.83408      105.36569
N         30.30996        0.79922      101.09799
C         30.95763        0.84376       99.78788
C         32.27272        0.06232       99.86268
O         32.55193       -0.51320      100.90805
C         29.96333        0.27049       98.74865
C         30.21934        0.61519       97.30354
O         31.14160        1.52694       96.94342
O         29.50165        0.12987       96.44449
H         29.95922       -0.11146      101.43581
H         31.19323        1.89842       99.52737
H         28.94912        0.67421       98.96063
H         29.91844       -0.83324       98.88046
N         33.15432        0.02490       98.82267
C         34.42583       -0.67962       98.87459
C         35.61841        0.24548       98.72700
O         36.72940       -0.26141       98.73605
H         32.94186        0.52140       97.95243
H         34.44650       -1.42713       98.05269
H         34.54954       -1.22918       99.83192
N         35.48096        1.59934       98.58495
C         36.61401        2.50923       98.43026
C         36.60942        3.55428       99.53506
O         35.70231        3.57003      100.35358
C         36.52550        3.17554       97.04378
C         36.61086        2.13872       95.94997
N         35.57099        1.92912       95.11003
O         37.62946        1.47434       95.82819
H         34.54275        2.02167       98.56558
H         37.57900        1.96100       98.50047
H         37.35298        3.90153       96.89490
H         35.56615        3.73483       96.97454
H         34.69946        2.46946       95.20360
H         35.63295        1.21327       94.37070
N         37.62767        4.45892       99.61707
C         37.70564        5.49722      100.63580
C         37.77876        6.86936      100.00627
O         37.73326        6.98179       98.78925
H         38.39769        4.40497       98.93405
H         38.63060        5.33265      101.22937
H         36.83975        5.46525      101.32963
N         37.93638        7.97376      100.79484
C         38.12775        9.30810      100.22330
C         36.90085        9.82505       99.47210
O         37.04896       10.79259       98.73804
C         38.63427       10.33433      101.27284
C         37.61433       10.67946      102.36822
O         39.84891        9.89999      101.83708
H         38.00064        7.83507      101.81321
H         38.94862        9.20959       99.47729
H         38.85312       11.28520      100.73938
H         39.65017        9.21744      102.52959
H         38.05524       11.42440      103.06393
H         36.71500       11.13533      101.91797
H         37.31771        9.78212      102.94925
N         35.67508        9.23106       99.57976
C         34.51260        9.60131       98.76707
C         34.15375        8.39632       97.90087
O         34.71123        7.32747       98.12423
C         33.35038       10.07843       99.71103
C         33.76486       11.30255      100.57196
C         32.02125       10.38316       98.99541
C         34.09378       12.57663       99.78348
H         35.55460        8.44715      100.23986
H         34.77491       10.41600       98.06130
H         33.13305        9.25170      100.42450
H         34.64167       11.02971      101.18505
H         32.94310       11.54201      101.28232
H         31.59234        9.46556       98.54804
H         31.26576       10.74177       99.72755
H         32.14940       11.15615       98.20988
H         34.94582       12.41943       99.09409
H         33.21563       12.92931       99.20540
H         34.37871       13.38239      100.49215
N         33.25254        8.48525       96.87732
C         32.86964        7.32770       96.07838
C         33.08313        7.59651       94.58819
O         32.20427        7.32067       93.78460
C         31.43115        6.95549       96.48855
C         30.94283        5.66838       95.90656
O         29.88402        5.64378       95.30718
O         31.62739        4.52551       96.10359
H         32.79562        9.38567       96.67213
H         33.51691        6.46090       96.33331
H         30.73573        7.78758       96.23645
H         31.41714        6.82318       97.59275
N         34.25718        8.15136       94.16149
C         34.62143        8.39032       92.76027
C         33.52705        9.13466       91.99143
O         33.08249       10.16309       92.48201
C         35.91049        9.25385       92.70503
C         36.37320        9.51443       91.28712
C         37.00790        8.50486       90.54355
C         36.15910       10.77081       90.69133
C         37.41298        8.74655       89.22600
C         36.55640       11.00469       89.37140
C         37.18338        9.99386       88.63929
H         34.93962        8.42420       94.88606
H         34.82458        7.40554       92.29842
H         36.74293        8.79145       93.27858
H         35.67774       10.22252       93.20156
H         37.18649        7.53186       90.98363
H         35.66557       11.56313       91.24002
H         37.90075        7.96552       88.65722
H         36.37414       11.96904       88.91458
H         37.48990       10.17721       87.61731
N         33.09063        8.73698       90.74869
C         32.15199        9.50956       89.94073
C         30.75770        9.57343       90.52142
O         30.05416       10.54238       90.27355
C         32.11826        8.76651       88.59868
C         33.51088        8.17723       88.53747
C         33.65501        7.65666       89.96089
H         32.58199       10.52663       89.79353
H         31.41753        7.90108       88.65913
H         31.82270        9.39856       87.73384
H         33.65954        7.41044       87.74832
H         34.24119        9.00528       88.38186
H         33.02857        6.74733       90.09953
H         34.71158        7.41953       90.15873
N         30.27312        8.53502       91.26043
C         28.91409        8.48865       91.79257
C         28.63352        9.58573       92.81744
O         27.48425        9.70102       93.22143
C         28.65590        7.11847       92.45386
C         28.69431        5.94488       91.45737
C         28.56608        4.65085       92.20381
O         27.60038        3.92407       92.03611
O         29.52297        4.30827       93.08520
H         30.89354        7.72834       91.42251
H         28.20133        8.61816       90.94790
H         27.65396        7.10907       92.93822
H         29.42401        6.97997       93.24320
H         29.64830        5.91491       90.89210
H         27.85901        6.06075       90.73278
N         29.60633       10.41742       93.29351
C         29.35281       11.47519       94.25110
H         28.28414       11.53892       94.54481
H         29.95857       11.29755       95.16395
H         29.64882       12.44837       93.80611
H         30.57942       10.30964       92.98543
Ca        29.29895        2.61519       94.55569
O         28.62879        3.75194       97.66510
H         28.10246        3.05098       98.12528
H         27.97214        4.46654       97.46836
O         26.45280        1.93676       94.92757
H         26.38016        2.42762       94.07071
H         25.98903        2.51418       95.58436
O         32.03386        1.81190       93.85763
H         32.67265        2.56273       93.76852
H         32.40875        1.09317       93.28980
O         29.11788        0.15922       92.96245
H         28.58625       -0.04380       93.77289
H         28.53911        0.76387       92.43308

Ca 1.0



