%chk=apoCaM-CA-Ng.loop1.water3.frame47.chk
%nprocshared=20
%mem=10GB
%nosave
#b3lyp/svp scf=(tight,noincore,xqc) Test 
#IOP(5/87=12) Density=Current Pop=(MK,readradii) iop(6/33=2) iop(6/42=6)

apoCaM-CA-Ng.loop1.water3.frame47 

   0  1 
C         69.63391       51.53111       54.59474
C         69.54250       51.28374       56.07307
O         69.46311       52.24184       56.82771
H         70.54061       52.13294       54.37511
H         69.70052       50.57917       54.02594
H         68.73526       52.08429       54.25194
N         69.56311       50.01193       56.55824
C         69.51530       49.68361       57.97907
C         70.80540       49.00395       58.42358
O         70.83380       48.46283       59.52038
C         68.25528       48.84569       58.30147
C         68.21148       47.48498       57.66357
O         68.17017       47.36423       56.45015
O         68.16391       46.38738       58.44259
H         69.64873       49.23473       55.88666
H         69.41658       50.60279       58.59719
H         67.35077       49.41391       57.99424
H         68.20162       48.71167       59.40457
N         71.93603       49.05953       57.65545
C         73.21586       48.47312       58.02970
C         74.23371       49.57635       58.28575
O         74.40833       50.40436       57.40046
C         73.77875       47.59812       56.88404
C         73.17045       46.20031       56.72549
C         71.67712       46.16098       56.40053
C         71.25636       44.71014       56.11738
N         69.82524       44.61115       55.84661
H         71.91995       49.58899       56.77132
H         73.10244       47.84675       58.91997
H         74.85395       47.40152       57.09668
H         73.73612       48.15775       55.92304
H         73.35650       45.61638       57.65400
H         73.72643       45.71022       55.89510
H         71.46682       46.78614       55.50575
H         71.10054       46.54913       57.26389
H         71.50530       44.06779       56.99192
H         71.82101       44.33263       55.23533
H         69.59100       43.61980       55.61161
H         69.28719       44.88501       56.69772
H         69.56387       45.22504       55.04156
N         75.02801       49.64637       59.40099
C         75.02123       48.75441       60.56399
C         75.14953       47.27528       60.17857
O         74.27657       46.48940       60.52843
C         73.80614       49.04426       61.47130
C         73.78890       50.43861       62.04531
O         74.66156       51.25152       61.78070
O         72.80419       50.78238       62.89444
H         75.74315       50.39111       59.41436
H         75.90776       48.99379       61.19405
H         73.84644       48.35164       62.33305
H         72.86037       48.87204       60.92959
N         76.21536       46.78484       59.48779
C         77.34175       47.62053       59.11756
C         78.50230       46.84216       58.51821
O         78.36371       45.66681       58.22546
H         76.23456       45.77469       59.28667
H         77.67565       48.09901       60.04465
H         77.03041       48.40689       58.40047
N         79.71332       47.43831       58.29579
C         80.01127       48.82235       58.64701
C         79.97334       49.09521       60.16077
O         80.03750       50.25653       60.52545
C         81.35937       49.26650       58.02858
C         82.53523       48.44917       58.49671
O         83.19235       47.80820       57.69134
O         82.88147       48.43183       59.79747
H         80.44415       46.86902       57.83795
H         79.23206       49.46199       58.17429
H         81.54899       50.33674       58.25830
H         81.27722       49.17426       56.92167
N         79.86285       48.08830       61.09171
C         79.76823       48.33562       62.52981
C         78.60633       47.60213       63.20300
O         77.85143       46.89550       62.55475
H         79.88092       47.10749       60.78584
H         79.69648       49.41969       62.75549
H         80.70041       47.95097       62.99518
N         78.48594       47.68890       64.56368
C         77.57929       46.87713       65.38910
C         76.08896       47.17444       65.20169
O         75.67639       48.32332       65.27011
C         77.94805       46.96878       66.89908
C         77.72563       48.34574       67.55029
O         79.26736       46.52169       67.10838
H         79.16912       48.29167       65.04187
H         77.76364       45.80948       65.13354
H         77.28683       46.25965       67.44529
H         79.89268       47.26148       66.89397
H         78.33677       49.13030       67.05967
H         76.65745       48.63827       67.50870
H         78.00984       48.29284       68.62241
N         75.21609       46.13752       65.03066
C         73.76265       46.27670       64.90303
C         73.08676       46.78215       66.18315
O         73.27528       46.17535       67.22831
C         73.12707       44.90984       64.46430
C         71.67561       45.13641       63.97144
C         73.18697       43.81609       65.56037
C         71.01589       43.88620       63.38910
H         75.61771       45.19062       64.96341
H         73.57075       46.98225       64.07207
H         73.71523       44.54931       63.59128
H         71.69519       45.90272       63.16567
H         71.04545       45.51969       64.79825
H         72.86802       42.83402       65.15884
H         74.21642       43.68438       65.94947
H         72.51027       44.05227       66.40817
H         71.63200       43.47471       62.56211
H         70.86894       43.10987       64.16723
H         70.01559       44.15212       62.98836
N         72.20730       47.83082       66.14976
C         71.34215       48.18427       67.28580
C         69.84686       48.05756       66.95321
O         69.04452       48.18904       67.86708
C         71.65687       49.60015       67.81703
C         71.38707       50.70821       66.79400
O         73.00351       49.65873       68.21626
H         72.10428       48.35143       65.26696
H         71.52389       47.47726       68.12547
H         70.98504       49.79159       68.69127
H         73.02074       49.85319       69.19018
H         72.03338       50.59042       65.90105
H         70.32408       50.69933       66.47420
H         71.59991       51.69585       67.25416
N         69.39675       47.82220       65.68275
C         67.99540       47.69144       65.27822
C         67.18898       48.97590       65.50299
O         67.64050       49.89677       66.16853
C         67.31623       46.44652       65.93052
C         68.11837       45.16599       65.67647
O         66.02761       46.26505       65.40058
H         70.07632       47.72481       64.91894
H         68.00483       47.52525       64.17635
H         67.24214       46.61314       67.02881
H         65.51985       45.69795       66.03780
H         68.21857       44.98354       64.58537
H         69.12425       45.23520       66.13629
H         67.59580       44.29805       66.13251
N         65.96246       49.08776       64.92149
C         65.05983       50.23085       65.05086
C         65.40498       51.38787       64.11975
O         64.65055       52.35244       64.10995
C         63.57580       49.79543       64.86577
C         63.26435       49.03395       63.56289
C         61.75629       48.79982       63.39835
C         61.42811       47.82072       62.25536
N         61.80489       46.44100       62.58693
H         65.67483       48.30913       64.32534
H         65.11056       50.62593       66.09024
H         62.93299       50.70103       64.93393
H         63.29084       49.13256       65.71272
H         63.75984       48.05243       63.61446
H         63.64235       49.58648       62.67541
H         61.28585       49.78498       63.18609
H         61.31081       48.39942       64.33477
H         61.92422       48.14167       61.31258
H         60.32903       47.84422       62.08962
H         62.83713       46.33432       62.69505
H         61.32772       46.14313       63.46959
H         61.49655       45.80663       61.81589
N         66.53161       51.41345       63.35082
C         66.84144       52.55474       62.49714
C         65.98340       52.52026       61.25147
O         66.04933       51.54703       60.51250
C         68.32936       52.59393       62.10785
C         69.22326       52.81254       63.34316
C         70.65787       53.08098       62.98513
O         71.53549       53.37262       63.96200
O         71.03274       53.08627       61.82239
H         67.20982       50.64148       63.40856
H         66.65627       53.49845       63.06011
H         68.46852       53.46611       61.42936
H         68.63038       51.67082       61.56472
H         69.16880       51.93402       64.02126
H         68.86034       53.70669       63.89533
N         65.16972       53.57003       60.94653
C         64.34541       53.62259       59.75579
H         63.28193       53.74165       60.04895
H         64.64839       54.49530       59.13949
H         64.43884       52.70807       59.13314
H         65.13908       54.38522       61.57716
Ca        73.62115       54.01024       63.38557
O         74.36757       52.27636       65.67758
H         74.06031       52.84223       66.42990
H         74.52906       51.38735       66.08149
O         73.77337       53.71397       60.20410
H         73.43257       53.05510       59.54814
H         74.51622       54.17136       59.73588
O         76.55686       54.07503       63.68774
H         76.63345       54.16519       64.67087
H         77.32988       53.51507       63.42601

Ca 1.0



