%chk=apoCaM-CA-Ng.loop3.water4.frame32.chk
%nprocshared=20
%mem=10GB
%nosave
#b3lyp/svp scf=(tight,noincore,xqc) Test 
#IOP(5/87=12) Density=Current Pop=(MK,readradii) iop(6/33=2) iop(6/42=6)

apoCaM-CA-Ng.loop3.water4.frame32 

   0  1 
C         56.20201       85.28955       56.45291
C         55.70184       85.90385       57.72584
O         55.98963       87.06806       57.96064
H         57.31250       85.32864       56.44346
H         55.88823       84.22891       56.36195
H         55.81219       85.85706       55.58286
N         54.96404       85.17161       58.61461
C         54.49518       85.67802       59.90402
C         55.64879       85.99367       60.85899
O         55.39386       86.53815       61.92265
C         53.53822       86.87912       59.72421
C         52.36177       86.51387       58.86023
O         51.53585       85.51490       59.22799
O         52.14549       87.12445       57.82580
H         54.73078       84.19505       58.37766
H         53.90209       84.87909       60.40426
H         54.07016       87.74991       59.28982
H         53.14594       87.18980       60.71658
N         56.92838       85.59573       60.58505
C         58.06194       85.78940       61.48539
C         59.22491       86.48895       60.79733
O         60.25931       86.64818       61.43541
C         58.55523       84.40494       61.93948
C         57.51537       83.65906       62.78439
C         57.95829       82.22549       63.12422
C         59.32613       82.10468       63.82414
N         59.37749       82.84040       65.08750
H         57.11832       85.05680       59.72979
H         57.77893       86.38857       62.37843
H         59.46990       84.53590       62.55504
H         58.81682       83.80144       61.04124
H         56.55634       83.58215       62.22825
H         57.32091       84.23664       63.71356
H         58.01092       81.64066       62.17976
H         57.17572       81.76498       63.76477
H         60.13732       82.45975       63.15194
H         59.51861       81.02726       64.02018
H         58.62391       82.50662       65.73020
H         60.30740       82.67427       65.53562
H         59.27702       83.86701       64.92098
N         59.15796       86.90617       59.50458
C         60.29690       87.42793       58.77247
C         60.05038       88.87436       58.41438
O         58.93434       89.22987       58.06365
C         60.51219       86.54919       57.52416
C         61.76842       86.90136       56.77992
O         62.96483       86.81369       57.39256
O         61.71473       87.23122       55.60792
H         58.27698       86.82392       58.98110
H         61.22677       87.36257       59.38092
H         59.62955       86.62618       56.85029
H         60.60984       85.48884       57.84412
N         61.07461       89.76501       58.46351
C         60.95807       91.16209       58.08808
C         60.48640       91.32695       56.66077
O         59.60704       92.13917       56.41238
H         62.00720       89.42939       58.74919
H         61.96966       91.61804       58.16571
H         60.28540       91.70407       58.78693
N         61.04480       90.58323       55.66588
C         60.71709       90.74883       54.24869
C         59.25634       90.41339       53.93345
O         58.81354       90.73820       52.84008
C         61.64668       89.88800       53.35682
C         63.15017       90.23566       53.45423
N         63.43989       91.57009       52.94668
O         63.63641       90.11562       54.76033
H         61.74176       89.88542       55.94928
H         60.88428       91.81883       53.99152
H         61.35075       90.00448       52.29113
H         61.50645       88.81966       53.61620
H         63.11524       91.62951       51.95591
H         64.47954       91.68210       52.93114
N         58.44493       89.78692       54.83571
C         57.02411       89.56091       54.63195
C         56.74199       88.62553       53.48121
O         57.13547       87.46936       53.53362
H         58.83256       89.48620       55.73207
H         56.53544       90.54764       54.47572
H         56.58243       89.11633       55.54962
N         56.03746       89.08421       52.40849
C         55.66269       88.34305       51.20609
C         56.82926       87.99704       50.28309
O         56.54621       87.68642       49.13615
C         54.79994       87.09755       51.51863
C         54.13364       86.56513       50.26766
C         53.14422       87.32972       49.62392
C         54.49855       85.32167       49.72347
C         52.53540       86.86439       48.45614
C         53.89362       84.86196       48.54743
C         52.90986       85.63363       47.91006
O         52.32075       85.20652       46.77475
H         55.71094       90.06287       52.44324
H         55.03769       89.06022       50.62642
H         54.00107       87.34918       52.24923
H         55.45052       86.32372       51.98028
H         52.84217       88.28787       50.02811
H         55.26237       84.71704       50.19598
H         51.77480       87.46504       47.97275
H         54.19269       83.90891       48.12976
H         52.55573       84.36648       46.35583
N         58.13958       88.02646       50.68125
C         59.29941       87.84685       49.81267
C         59.63008       89.19094       49.18076
O         60.72907       89.67370       49.41734
C         59.23075       86.60721       48.85405
C         58.96740       85.31800       49.68553
C         60.54767       86.47449       48.06168
C         58.85763       84.03271       48.85846
H         58.37406       88.24397       51.65248
H         60.16685       87.62993       50.48142
H         58.42169       86.73705       48.10787
H         58.01098       85.42833       50.23865
H         59.78126       85.18210       50.43161
H         60.49320       85.64535       47.32745
H         60.75228       87.38621       47.47441
H         61.40584       86.30061       48.74438
H         58.03905       84.11630       48.11362
H         59.80960       83.79557       48.34140
H         58.63613       83.17979       49.53529
N         58.71953       89.91060       48.45671
C         59.02413       91.25281       47.96413
C         60.04243       91.22574       46.83426
O         60.56216       92.27807       46.49143
C         57.74974       91.98443       47.52406
O         56.85750       92.05278       48.60362
H         57.77485       89.53785       48.31005
H         59.45099       91.83216       48.81535
H         57.28026       91.43492       46.67823
H         58.01557       93.01764       47.20522
H         56.04640       92.51341       48.26604
N         60.39684       90.05209       46.23240
C         61.45879       89.90036       45.24891
C         62.78220       90.35449       45.84218
O         63.50829       91.11852       45.22117
C         61.10298       90.59990       43.93045
H         59.92001       89.18559       46.50907
H         61.55211       88.81267       45.03114
H         61.88916       90.40350       43.17133
H         60.13871       90.20429       43.54584
H         61.00726       91.69669       44.06682
N         63.11795       89.94890       47.09862
C         64.32023       90.37276       47.79978
C         64.98089       89.19661       48.47399
O         64.28275       88.33376       48.99102
C         63.95341       91.38498       48.88409
H         62.44306       89.36806       47.61668
H         65.03396       90.88536       47.11762
H         64.87365       91.71084       49.41909
H         63.48510       92.28001       48.42417
H         63.24965       90.94232       49.61916
N         66.33751       89.15482       48.59603
C         67.05173       88.13638       49.35538
C         66.73355       86.76972       48.77892
O         66.28619       85.88344       49.49406
C         66.70499       88.30783       50.85102
C         67.57467       87.51246       51.83979
C         67.11757       87.88553       53.21553
O         66.45645       87.00529       53.98360
O         67.18466       89.05111       53.57805
H         66.89799       89.90417       48.16262
H         68.14039       88.33355       49.24103
H         65.63583       88.05460       51.02676
H         66.83402       89.38845       51.08659
H         68.64818       87.77376       51.72620
H         67.44405       86.42259       51.68370
N         66.88559       86.56893       47.44054
C         66.52534       85.33983       46.76704
H         65.71759       85.55439       46.03495
H         67.40800       84.94556       46.22423
H         66.15932       84.56259       47.46968
H         67.23515       87.34310       46.85528
Ca        64.72962       88.13387       54.83412
O         63.44934       86.77205       52.44141
H         63.10913       87.36524       51.72587
H         62.68546       86.66827       53.06252
O         66.48106       87.19995       57.35467
H         66.47781       86.31414       57.79685
H         67.23753       87.68415       57.77152
O         64.37121       89.67016       57.50828
H         64.89140       90.47117       57.76712
H         64.50840       89.03078       58.25115
O         64.20283       84.82758       54.83308
H         64.76873       84.68206       54.03356
H         64.52620       84.16164       55.49034

Ca 1.0



