%chk=apoCaM-CA-Ng.loop1.water4.frame738.chk
%nprocshared=20
%mem=10GB
%nosave
#b3lyp/svp scf=(tight,noincore,xqc) Test 
#IOP(5/87=12) Density=Current Pop=(MK,readradii) iop(6/33=2) iop(6/42=6)

apoCaM-CA-Ng.loop1.water4.frame738 

   0  1 
C        -16.93237       35.47025        5.38028
C        -15.70010       36.26496        5.70130
O        -15.62458       37.42692        5.32848
H        -17.65898       36.08118        4.80259
H        -16.66066       34.57560        4.78223
H        -17.41782       35.14307        6.32419
N        -14.68946       35.68967        6.41013
C        -13.47450       36.39035        6.81051
C        -12.18554       35.79426        6.15098
O        -12.38012       34.47673        5.72726
C        -13.41543       36.53757        8.35930
C        -13.77001       35.37989        9.29065
O        -14.69339       35.53059       10.07540
O        -13.07104       34.23048        9.36232
H        -14.79580       34.70559        6.70255
H        -13.50125       37.44914        6.46752
H        -14.16487       37.32681        8.60068
H        -12.42447       36.95200        8.64018
N        -11.72391       36.61891        5.02261
C        -10.55279       36.06660        4.31180
C         -9.26256       36.19922        5.11523
O         -8.83372       37.31467        5.37753
C        -10.41914       36.80115        2.96622
C         -9.29655       36.22893        2.08206
C         -9.11468       37.00793        0.77007
C        -10.34959       36.96367       -0.14457
N        -10.09044       37.66653       -1.39995
H        -11.50687       37.58727        5.35746
H        -10.74241       34.99800        4.06997
H        -10.23153       37.88190        3.15320
H        -11.38936       36.70149        2.43670
H         -9.50346       35.15943        1.85926
H         -8.33160       36.28677        2.63051
H         -8.25553       36.55733        0.22712
H         -8.86087       38.06554        1.00261
H        -11.21691       37.44529        0.35458
H        -10.61013       35.90458       -0.36377
H         -9.29879       37.21166       -1.90988
H        -10.94723       37.62522       -1.99778
H         -9.85905       38.66868       -1.20900
N         -8.58041       35.08624        5.51031
C         -7.27928       35.11858        6.18300
C         -6.27845       34.19915        5.46767
O         -6.68216       33.50527        4.54385
C         -7.47308       34.72999        7.66930
C         -8.18476       33.42574        7.87243
O         -7.71921       32.38154        7.44624
O         -9.33852       33.40952        8.56014
H         -9.00872       34.16451        5.33169
H         -6.86434       36.14836        6.15492
H         -8.07352       35.53035        8.15317
H         -6.51379       34.67790        8.21405
N         -4.96179       34.08337        5.83071
C         -4.29641       34.86710        6.85916
C         -2.96024       35.40955        6.39788
O         -2.89902       36.07720        5.37531
H         -4.40259       33.36362        5.35661
H         -4.13851       34.22082        7.74851
H         -4.90729       35.73632        7.16106
N         -1.85275       35.22399        7.17647
C         -0.54330       35.80106        6.88317
C          0.10680       35.07258        5.72460
O          0.30083       33.86949        5.82116
C          0.35384       35.71626        8.14197
C          1.68949       36.40628        8.00964
O          2.53174       36.41153        9.05988
O          2.01625       36.97441        6.97921
H         -1.96964       34.71531        8.06687
H         -0.67615       36.88323        6.65890
H          0.52362       34.65129        8.41263
H         -0.18183       36.20568        8.98462
N          0.48357       35.74239        4.59779
C          1.12211       35.09366        3.45982
C          0.21300       34.13968        2.70614
O          0.68042       33.54983        1.74039
H          0.34733       36.76302        4.55320
H          2.03025       34.55415        3.80966
H          1.44741       35.87340        2.73855
N         -1.07934       33.92138        3.07979
C         -1.98067       32.99291        2.41905
C         -2.19659       31.83439        3.35764
O         -2.60296       32.05647        4.49087
C         -3.31330       33.69421        2.08393
C         -3.10594       34.84950        1.10179
O         -4.20029       32.76171        1.52096
H         -1.46207       34.40313        3.90237
H         -1.53793       32.60518        1.47407
H         -3.73981       34.10195        3.03250
H         -5.11860       33.05452        1.76019
H         -4.07948       35.33942        0.88967
H         -2.41943       35.61082        1.52913
H         -2.67933       34.47177        0.14814
N         -1.87703       30.56837        2.97691
C         -1.93566       29.43222        3.88466
C         -0.51396       28.99918        4.25126
O         -0.35337       28.26527        5.21161
C         -2.79373       28.29149        3.25931
C         -4.15594       28.80254        2.70915
C         -3.00922       27.11439        4.22765
C         -5.09191       29.42680        3.74748
H         -1.53170       30.41172        2.01598
H         -2.40685       29.74966        4.84135
H         -2.23939       27.89987        2.37702
H         -4.68671       27.95609        2.22135
H         -3.96973       29.56014        1.91750
H         -3.61444       26.32361        3.73558
H         -2.04690       26.64841        4.51572
H         -3.53087       27.44377        5.15015
H         -6.02176       29.76192        3.24068
H         -5.37197       28.69199        4.52821
H         -4.62774       30.31324        4.22303
N          0.57153       29.45490        3.54738
C          1.95153       29.17982        3.90984
C          2.57806       28.31247        2.84506
O          2.61176       28.70186        1.68803
C          2.73147       30.50761        4.03146
C          2.17007       31.38505        5.14779
O          4.08497       30.23638        4.29828
H          0.44563       30.03095        2.70834
H          2.00925       28.65221        4.88639
H          2.63118       31.05766        3.06286
H          4.62243       30.89577        3.78533
H          2.73270       32.34139        5.19091
H          1.10101       31.61046        4.95644
H          2.26268       30.86887        6.12691
N          3.09667       27.10255        3.19386
C          3.75230       26.19946        2.25792
C          3.99334       24.87454        2.97042
O          3.44926       23.86782        2.53738
C          5.05103       26.84073        1.67833
C          5.72932       25.94674        0.63841
O          5.95757       27.14678        2.70664
H          3.00352       26.80709        4.17729
H          3.05532       26.00473        1.41119
H          4.76761       27.77955        1.15247
H          6.51910       27.90299        2.39191
H          5.03037       25.74021       -0.19979
H          6.62070       26.46771        0.22624
H          6.05715       24.98810        1.09061
N          4.76402       24.81450        4.09490
C          4.97680       23.60225        4.87213
C          4.64068       23.86077        6.33097
O          5.08500       24.86494        6.87314
C          6.43900       23.15361        4.72614
C          6.65666       21.77987        5.38279
C          8.06015       21.23945        5.10845
C          8.21334       19.82603        5.68624
N          9.53496       19.27950        5.38577
H          5.23054       25.67072        4.42663
H          4.35228       22.76868        4.48020
H          7.13395       23.91146        5.15104
H          6.65254       23.05301        3.63890
H          5.91987       21.06384        4.95485
H          6.49037       21.84626        6.48016
H          8.81801       21.91853        5.55619
H          8.22154       21.19428        4.00902
H          7.43841       19.16014        5.24321
H          8.06269       19.85178        6.78858
H         10.27697       19.87626        5.81760
H          9.60188       18.31274        5.77817
H          9.67576       19.23308        4.35010
N          3.93545       22.94890        7.05818
C          3.67472       23.13061        8.48159
C          2.62039       24.20962        8.71118
O          2.95441       25.18554        9.36781
C          3.35316       21.79417        9.18819
C          4.56650       20.84352        9.15858
C          4.31962       19.55370        9.89355
O          5.20894       18.72014        9.95562
O          3.13703       19.30291       10.48978
H          3.65311       22.06662        6.60411
H          4.61537       23.47480        8.97282
H          2.49198       21.28107        8.72741
H          3.11441       22.01070       10.25345
H          5.43618       21.34724        9.63519
H          4.83128       20.60169        8.10755
N          1.34566       24.17128        8.21953
C          0.79016       23.11253        7.40471
H         -0.24967       23.37476        7.11525
H          1.37998       22.98322        6.47540
H          0.72744       22.16757        7.97165
H          0.72526       24.97015        8.42585
Ca       -11.94328       33.48264        7.63690
O        -11.06088       31.74685        5.09634
H        -10.91219       32.32481        4.30622
H        -10.18127       31.71499        5.54983
O        -14.07631       31.51004        6.79649
H        -14.77826       31.69293        7.47041
H        -14.43000       31.89855        5.95731
O        -13.40630       31.45203       10.06232
H        -13.55848       30.61145       10.56133
H        -14.06932       32.08428       10.43789
O        -10.27839       31.52817       10.55633
H         -9.43390       31.97201       10.82236
H        -10.02851       30.96212        9.78294

Ca 1.0



