%chk=apoCaM-CA-Ng.loop4.water7.frame1059.chk
%nprocshared=20
%mem=10GB
%nosave
#b3lyp/svp scf=(tight,noincore,xqc) Test 
#IOP(5/87=12) Density=Current Pop=(MK,readradii) iop(6/33=2) iop(6/42=6)

apoCaM-CA-Ng.loop4.water7.frame1059 

   -3  1 
C         23.67702       80.46452       75.60940
C         25.16268       80.31834       75.40047
O         25.54251       79.46056       74.61822
H         23.18795       80.69404       74.64081
H         23.27389       79.50340       75.99545
H         23.40050       81.25966       76.32627
N         26.09602       81.06831       76.05631
C         25.78585       82.11403       77.02713
C         25.27965       83.39268       76.36223
O         24.92076       84.30792       77.09200
C         27.04490       82.48428       77.85339
C         27.58138       81.33340       78.66349
O         28.00476       80.32752       78.11716
O         27.62516       81.42337       80.00633
H         27.08682       80.84760       75.87115
H         25.03246       81.73068       77.74948
H         26.78329       83.29962       78.56404
H         27.84852       82.86033       77.18486
N         25.30021       83.57971       75.00419
C         25.00377       84.88442       74.39875
C         26.00264       85.95926       74.85881
O         25.73595       87.13398       74.65210
C         24.95419       84.82388       72.83700
C         26.32032       84.40790       72.22096
C         23.81068       83.89852       72.38025
C         26.35993       84.46195       70.69288
H         25.58124       82.80081       74.39716
H         23.99631       85.19252       74.75901
H         24.71022       85.84740       72.47306
H         26.58716       83.37829       72.52755
H         27.11018       85.09769       72.58764
H         23.68296       83.93219       71.27977
H         23.99418       82.84677       72.68348
H         22.85023       84.23502       72.82488
H         25.65504       83.73450       70.24245
H         26.12024       85.48496       70.33466
H         27.38050       84.19377       70.34467
N         27.16293       85.61642       75.49430
C         28.14814       86.54313       76.04843
C         29.21203       85.70323       76.74161
O         29.81846       84.86960       76.08148
C         28.79098       87.42747       74.95305
C         29.74422       88.46330       75.50070
O         30.32550       89.20895       74.72937
O         29.94896       88.60126       76.82599
H         27.35790       84.61685       75.61599
H         27.63697       87.19810       76.78874
H         28.00797       87.98113       74.39835
H         29.33207       86.78292       74.22898
N         29.45688       85.81757       78.07686
C         30.33885       84.89329       78.77404
C         31.77595       84.88352       78.28455
O         32.50850       84.00779       78.72190
H         28.94887       86.52427       78.63002
H         29.92384       83.87092       78.63432
H         30.33340       85.11037       79.86433
N         32.26464       85.81269       77.40914
C         33.63620       85.80296       76.91368
C         33.63740       85.90144       75.38390
O         33.07026       86.85738       74.87354
C         34.38864       86.99824       77.52407
C         35.84976       86.97141       77.17223
O         36.35072       87.88985       76.54440
O         36.61784       85.93918       77.57022
H         31.66237       86.59144       77.11055
H         34.15731       84.88904       77.26243
H         34.31094       86.95276       78.63216
H         33.92343       87.95016       77.18531
N         34.26923       85.00763       74.56377
C         34.98131       83.84038       75.05688
C         35.74196       83.06711       73.98008
O         35.75743       83.51085       72.84021
H         34.23813       85.19395       73.54962
H         34.22927       83.19175       75.53846
H         35.72564       84.19269       75.78446
N         36.41687       81.89326       74.22155
C         36.46064       81.14138       75.47924
C         35.04426       80.76575       75.84452
O         34.52689       81.19024       76.87065
C         37.25551       81.85791       76.60206
C         38.75083       82.03728       76.26716
C         39.01481       82.93882       75.08669
N         38.64778       84.24049       75.10895
O         39.57981       82.48820       74.10120
H         36.89580       81.45402       73.41956
H         37.00298       80.18434       75.30490
H         37.21095       81.21030       77.50504
H         36.81394       82.81974       76.90110
H         39.18922       81.03374       76.07127
H         39.26972       82.46496       77.15164
H         38.18430       84.64216       75.93449
H         38.83409       84.85065       74.29914
N         34.34050       79.99199       74.97373
C         32.89845       79.79261       75.03910
C         32.28598       80.18905       73.70127
O         33.01535       80.36436       72.73096
C         32.53571       78.33053       75.41628
C         32.98478       78.01382       76.84863
C         33.13595       77.30116       74.44491
H         34.84841       79.58732       74.17008
H         32.46256       80.46837       75.80907
H         31.42810       78.22791       75.38980
H         34.08838       78.09052       76.94740
H         32.51035       78.72129       77.56191
H         32.67319       76.98473       77.12857
H         32.78877       77.49761       73.41353
H         34.24602       77.32942       74.46160
H         32.81384       76.27603       74.72510
N         30.94438       80.37901       73.57490
C         30.33751       80.74343       72.29659
C         30.14886       79.52862       71.39549
O         29.80841       79.71025       70.23629
C         28.97310       81.42072       72.52093
C         29.10961       82.65827       73.36824
N         29.82852       83.72055       72.93554
O         28.55680       82.70261       74.45519
H         30.35296       80.30768       74.41869
H         31.00123       81.47414       71.78167
H         28.29019       80.69814       73.02238
H         28.51687       81.71002       71.54916
H         30.29272       83.70810       72.01654
H         29.91529       84.56563       73.51613
N         30.27072       78.25862       71.88287
C         29.98757       77.06449       71.09226
C         29.88213       75.85759       72.00795
O         30.74989       75.66204       72.84750
C         31.00621       76.81253       69.95947
C         32.38552       76.42740       70.43153
C         32.72653       75.06824       70.55197
C         33.34273       77.40563       70.73691
C         34.00001       74.69375       70.98228
C         34.62331       77.02805       71.15795
C         34.95405       75.66934       71.28404
O         36.18197       75.28925       71.69005
H         30.48092       78.13524       72.88209
H         28.99740       77.20195       70.60290
H         31.06599       77.66326       69.24830
H         30.60110       75.96528       69.36190
H         32.00073       74.29693       70.32252
H         33.10035       78.45617       70.64120
H         34.24445       73.64302       71.07826
H         35.35666       77.79074       71.38582
H         36.87559       75.92943       71.90209
N         28.83423       74.99742       71.88899
C         28.61111       73.88774       72.80235
C         27.18835       74.01521       73.31453
O         26.38506       73.11040       73.13324
C         28.89688       72.56541       72.05896
C         28.88527       71.33904       72.98677
C         29.17814       70.08442       72.21575
O         28.27351       69.08727       72.18307
O         30.23727       69.95777       71.62164
H         28.15894       75.13511       71.12115
H         29.31095       73.94589       73.66526
H         29.91491       72.63818       71.61416
H         28.16704       72.43707       71.22911
H         27.89875       71.22929       73.47775
H         29.65453       71.46238       73.77978
N         26.78915       75.18435       73.89251
C         25.41034       75.44407       74.28570
C         24.77146       76.48775       73.37776
O         23.59533       76.77174       73.56222
C         25.35135       75.89949       75.76119
C         26.07984       74.95753       76.73949
C         25.53092       73.55899       76.82707
O         26.14881       72.66958       77.62461
O         24.54240       73.21443       76.19970
H         27.47751       75.94570       74.00429
H         24.79778       74.52768       74.16462
H         24.29081       76.01866       76.07583
H         25.84379       76.89355       75.84130
H         26.03274       75.40337       77.75628
H         27.14973       74.89681       76.44818
N         25.46059       77.08754       72.36149
C         24.84339       78.04924       71.47541
H         24.46884       78.91889       72.05462
H         25.58777       78.40914       70.73270
H         24.00203       77.57227       70.92930
H         26.45013       76.86455       72.18747
Ca        24.12084       70.44746       77.55344
O         26.92897       69.59006       78.62637
H         27.34461       69.13225       77.85313
H         27.44339       70.43049       78.72247
O         21.09248       70.65640       77.63770
H         20.79558       69.78165       77.28140
H         20.61089       71.32532       77.08930
O         23.35127       67.60578       76.75618
H         23.32652       67.65002       75.76739
H         22.40106       67.65104       77.03077
O         22.94028       70.69806       74.60255
H         22.27228       69.97671       74.72049
H         23.39944       70.47518       73.75411
O         25.99792       69.52526       75.27194
H         25.93041       69.96906       74.38976
H         26.73071       68.86822       75.16515
O         22.91424       69.12254       80.05892
H         23.84416       68.97643       80.36621
H         22.63460       68.24711       79.69080
O         24.64491       72.12917       80.23966
H         24.58639       71.43051       80.93826
H         25.60133       72.38450       80.22747

Ca 1.0



