%chk=apoCaM-CA-Ng.loop3.water3.frame583.chk
%nprocshared=20
%mem=10GB
%nosave
#b3lyp/svp scf=(tight,noincore,xqc) Test 
#IOP(5/87=12) Density=Current Pop=(MK,readradii) iop(6/33=2) iop(6/42=6)

apoCaM-CA-Ng.loop3.water3.frame583 

   0  1 
C         54.38549      101.53595       55.03586
C         54.15342      101.50974       53.55496
O         53.23289      100.83719       53.11232
H         55.24167      102.19204       55.30050
H         53.47694      101.92594       55.54132
H         54.59746      100.50969       55.39910
N         54.93831      102.24614       52.72103
C         54.70910      102.30933       51.28209
C         54.96363      100.94030       50.63922
O         55.69684      100.14266       51.20791
C         55.60520      103.43189       50.68775
C         55.22522      103.94987       49.33000
O         55.94871      104.94201       48.77759
O         54.23643      103.54457       48.75074
H         55.68704      102.82288       53.13649
H         53.64794      102.60210       51.14512
H         56.66506      103.09641       50.68722
H         55.52653      104.32374       51.34621
N         54.37933      100.60609       49.45353
C         54.59492       99.34218       48.74080
C         55.32893       99.55917       47.42274
O         55.72009       98.58210       46.79950
C         53.23888       98.63203       48.46950
C         52.30175       99.45921       47.55418
C         50.93739       98.79696       47.32299
C         49.94631       99.73726       46.60171
N         50.35156      100.06034       45.23242
H         53.75572      101.29587       49.03175
H         55.23529       98.67472       49.35779
H         52.73526       98.44752       49.44303
H         53.42872       97.64692       47.98899
H         52.79810       99.63995       46.57848
H         52.09865      100.42905       48.03062
H         50.49395       98.56383       48.31508
H         51.05657       97.84745       46.75808
H         49.83720      100.67698       47.18849
H         48.94982       99.24566       46.56860
H         51.27464      100.54110       45.21754
H         50.39780       99.19095       44.65466
H         49.64540      100.70940       44.81467
N         55.49192      100.81009       46.91086
C         56.10267      101.11429       45.62899
C         57.23268      102.13710       45.75535
O         57.89124      102.38416       44.75477
C         54.99506      101.62145       44.66754
C         54.05673      102.63627       45.29977
O         54.53390      103.75168       45.87447
O         52.85870      102.41714       45.34079
H         55.09953      101.60770       47.41508
H         56.55726      100.20251       45.18145
H         54.37546      100.74921       44.36209
H         55.45915      102.03504       43.74633
N         57.51598      102.78405       46.92544
C         58.56354      103.78507       47.07796
C         58.37099      105.07493       46.28398
O         59.19943      105.95772       46.45707
H         56.99231      102.55465       47.77815
H         59.54456      103.33415       46.81463
H         58.60509      104.07274       48.15199
N         57.35692      105.26476       45.38580
C         57.20372      106.46963       44.56807
C         55.78719      107.02026       44.66781
O         54.94664      106.37633       45.25607
C         57.49393      106.09141       43.10332
C         58.88586      105.52615       42.95480
N         59.07510      104.24739       42.55111
O         59.85214      106.22769       43.21391
H         56.69125      104.50988       45.20728
H         57.91586      107.25806       44.89557
H         57.39365      106.97592       42.43993
H         56.74532      105.33311       42.77927
H         58.27502      103.63408       42.33705
H         60.02706      103.86188       42.46377
N         55.43430      108.19816       44.08711
C         54.06462      108.70921       44.05702
C         53.45546      108.93615       45.43089
O         54.06830      109.61507       46.24253
H         56.16322      108.75003       43.61023
H         53.42404      108.01815       43.46729
H         54.07589      109.68607       43.52839
N         52.21003      108.44509       45.73350
C         51.52059      108.73064       46.99544
C         51.87556      107.68556       48.08863
O         53.22825      107.37699       48.02950
C         49.98674      108.73586       46.79630
C         49.50382      109.87046       45.92449
C         49.59916      111.19834       46.37780
C         48.92210      109.61582       44.67157
C         49.11918      112.25118       45.59245
C         48.45097      110.67161       43.88345
C         48.54543      111.99336       44.34354
O         48.08621      113.01970       43.59890
H         51.69048      107.94795       44.99589
H         51.83233      109.74045       47.34458
H         49.46331      108.83618       47.77257
H         49.69034      107.75525       46.36663
H         50.02898      111.41796       47.34730
H         48.83377      108.60180       44.30286
H         49.18829      113.26851       45.95780
H         48.00787      110.46094       42.91831
H         47.67963      112.88534       42.73085
N         51.46482      108.18829       49.42362
C         52.07405      107.64015       50.65850
C         51.75077      106.16673       50.84405
O         52.14634      105.36092       50.01565
C         53.62104      107.87400       50.80951
C         54.04046      107.58925       52.28015
C         54.03889      109.30275       50.40018
C         55.55247      107.53821       52.49967
H         51.52274      109.23215       49.47218
H         51.60175      108.21154       51.49035
H         54.16412      107.15764       50.15927
H         53.65502      106.59888       52.59930
H         53.59417      108.35908       52.94892
H         55.13515      109.43945       50.47879
H         53.79383      109.50406       49.33796
H         53.53111      110.06070       51.03235
H         55.75605      107.31622       53.56872
H         55.99548      106.72908       51.88193
H         56.04451      108.49954       52.25674
N         51.10947      105.74101       51.97124
C         50.98469      104.32988       52.33004
C         49.74305      103.66224       51.75570
O         49.55743      102.48436       52.02838
C         50.98068      104.18487       53.86393
O         52.17011      104.69594       54.40800
H         50.86102      106.44842       52.68019
H         51.88051      103.78061       51.97350
H         50.91553      103.11265       54.14886
H         50.08731      104.68845       54.30359
H         51.97400      105.61078       54.73907
N         48.84233      104.32504       50.97273
C         47.60404      103.70371       50.50476
C         47.88050      102.49207       49.61636
O         48.49749      102.67207       48.57727
C         46.76771      104.72482       49.72253
H         49.01565      105.31309       50.73641
H         47.01900      103.41892       51.40034
H         46.53974      105.60060       50.36601
H         47.32053      105.07864       48.82506
H         45.80867      104.27397       49.39379
N         47.48034      101.21819       49.92115
C         46.74800      100.83123       51.12771
C         45.33916      101.42417       51.14468
O         44.91269      101.92576       50.11391
C         46.65620       99.29641       51.18895
H         47.75084      100.47402       49.25692
H         47.33368      101.19018       51.99784
H         46.16145       98.93915       52.10906
H         46.08500       98.91052       50.31642
H         47.67514       98.85525       51.16728
N         44.52581      101.42999       52.24676
C         44.88684      100.97010       53.58342
C         44.82253      102.12562       54.56696
O         45.83708      102.42719       55.18085
C         44.07951       99.72555       54.05511
C         42.57916       99.79672       54.42086
C         41.61392       99.94083       53.27136
O         40.86264       99.01812       52.99768
O         41.49285      101.09550       52.59660
H         43.60238      101.85742       52.12533
H         45.93647      100.61861       53.58636
H         44.58272       99.40080       54.99419
H         44.21559       98.90283       53.32198
H         42.38347      100.56293       55.19743
H         42.35303       98.81531       54.89622
N         43.67158      102.83326       54.75345
C         43.55206      103.94292       55.67738
H         42.75676      103.71737       56.41847
H         44.49540      104.14395       56.22669
H         43.26960      104.85823       55.11638
H         42.83178      102.59127       54.21190
Ca        53.30122      105.38354       46.89888
O         50.24772      104.97590       46.78821
H         49.92547      104.62503       47.65380
H         49.43257      105.32137       46.34648
O         51.81645      105.15940       44.15021
H         51.16652      104.41267       44.15735
H         51.28993      105.93860       43.84276
O         51.53921      102.54776       49.14164
H         51.41603      101.93416       49.90864
H         50.89900      103.27987       49.30230

Ca 1.0



