%chk=apoCaM-CA-Ng.loop2.water2.frame1000.chk
%nprocshared=20
%mem=10GB
%nosave
#b3lyp/svp scf=(tight,noincore,xqc) Test 
#IOP(5/87=12) Density=Current Pop=(MK,readradii) iop(6/33=2) iop(6/42=6)

apoCaM-CA-Ng.loop2.water2.frame1000 

   -2  1 
C         73.18418       95.97769       45.63949
C         71.75620       95.53373       45.71789
O         71.09828       95.51328       44.68695
H         73.74003       95.29428       44.96224
H         73.22961       97.00844       45.23146
H         73.67023       95.96055       46.63653
N         71.21435       95.12535       46.90280
C         69.85259       94.62127       47.01147
C         69.91958       93.13572       47.31681
O         69.28306       92.66683       48.25117
C         69.08448       95.44666       48.07359
C         67.61250       95.13439       48.18751
O         67.07629       94.31191       47.46136
O         66.87163       95.78975       49.10141
H         71.80333       95.12035       47.75004
H         69.32826       94.72742       46.03691
H         69.16998       96.52494       47.81998
H         69.56281       95.28736       49.06539
N         70.72263       92.33490       46.55565
C         70.82431       90.89368       46.73284
C         72.16837       90.51429       47.35484
O         73.02985       91.37732       47.45317
C         70.63190       90.23983       45.35376
H         71.30806       92.76817       45.82494
H         70.02906       90.56244       47.43238
H         69.64592       90.53238       44.93446
H         71.42407       90.59250       44.65692
H         70.68128       89.13627       45.37725
N         72.43538       89.26969       47.86545
C         71.48014       88.16542       47.91279
C         71.08022       87.83669       49.33902
O         71.74991       88.23716       50.28048
C         71.98351       86.93525       47.12951
C         73.23748       86.29384       47.66568
O         73.21400       84.99215       48.00783
O         74.28761       86.91317       47.71844
H         73.35976       89.12230       48.29778
H         70.53848       88.46543       47.42734
H         72.17536       87.23664       46.07769
H         71.17700       86.16951       47.11734
N         69.89275       87.20824       49.55294
C         69.31040       86.97095       50.86065
C         68.74081       85.58000       50.90150
O         67.52825       85.46094       50.79016
H         69.31053       86.97431       48.73228
H         68.45346       87.67659       50.94692
H         69.99475       87.18319       51.70768
N         69.49691       84.45321       50.99018
C         70.92956       84.38700       51.27049
C         71.20112       84.73891       52.72906
O         70.53983       84.19227       53.60141
C         71.40218       82.94440       50.99874
C         72.83002       82.70238       51.40161
N         73.12541       81.72918       52.29213
O         73.72361       83.38230       50.92532
H         68.98806       83.55949       50.89021
H         71.50354       85.04772       50.58246
H         71.29480       82.73677       49.91168
H         70.75234       82.23061       51.54973
H         72.38637       81.14601       52.70934
H         74.09683       81.54422       52.55891
N         72.21149       85.59480       53.06274
C         72.53340       85.97374       54.43259
C         73.92873       85.56740       54.89226
O         74.27107       85.94301       56.00467
H         72.77796       86.00699       52.31053
H         71.80906       85.53918       55.15525
H         72.44920       87.07913       54.50370
N         74.77642       84.79113       54.14656
C         76.10573       84.37392       54.61989
C         77.19417       84.81115       53.64160
O         76.88227       85.45322       52.64772
C         76.15287       82.83619       54.82634
C         75.02176       82.33463       55.73072
O         76.10806       82.18265       53.58714
H         74.46518       84.44711       53.22772
H         76.33223       84.83386       55.60640
H         77.11228       82.58650       55.33383
H         76.51382       81.28500       53.71650
H         75.06474       82.84266       56.71745
H         74.03063       82.52190       55.26638
H         75.12861       81.24091       55.89342
N         78.49707       84.44479       53.84160
C         79.57876       84.74454       52.90863
C         79.99576       83.44016       52.25475
O         80.45794       82.54512       52.95046
C         80.77325       85.40470       53.65847
C         82.00490       85.67152       52.74864
C         80.33296       86.68307       54.39038
C         81.78201       86.70260       51.64216
H         78.73640       83.87531       54.66602
H         79.21768       85.43790       52.12016
H         81.11521       84.68771       54.43896
H         82.33090       84.71869       52.27838
H         82.84710       86.02591       53.38161
H         79.93441       87.43634       53.68024
H         79.53685       86.45317       55.12929
H         81.19093       87.11924       54.94469
H         80.97160       86.37394       50.96786
H         81.53838       87.69815       52.06654
H         82.71137       86.80916       51.04384
N         79.80678       83.25127       50.91763
C         80.09619       81.99684       50.23180
C         81.04929       82.15542       49.05235
O         81.37812       81.13533       48.46282
C         78.76807       81.32815       49.82216
C         77.85699       82.22264       49.02769
O         76.66522       82.56300       49.55794
O         78.18159       82.63346       47.92570
H         79.37276       84.00950       50.37149
H         80.59912       81.28433       50.92303
H         78.23282       81.05621       50.75897
H         78.95692       80.38488       49.26506
N         81.55332       83.36350       48.64830
C         82.53270       83.46867       47.56509
C         82.83312       84.93534       47.22984
O         83.18962       85.66420       48.14600
C         83.87306       82.80599       47.98713
C         84.90279       82.88296       46.88103
C         85.99934       83.75463       46.99630
C         84.76732       82.10258       45.71943
C         86.93358       83.85534       45.96162
C         85.70985       82.19965       44.68997
C         86.78978       83.07846       44.80954
H         81.24403       84.22573       49.11735
H         82.11940       82.93735       46.68926
H         83.75480       81.74191       48.27756
H         84.24250       83.34283       48.88873
H         86.12037       84.37158       47.87769
H         83.93188       81.42208       45.61053
H         87.76675       84.54010       46.05173
H         85.60061       81.59830       43.79661
H         87.51390       83.15964       44.00915
N         82.81234       85.43524       45.94695
C         83.34345       86.75550       45.60676
C         82.53057       87.94751       46.07715
O         82.93436       89.06667       45.78991
C         83.40005       86.74848       44.07316
C         83.59682       85.27800       43.77207
C         82.59882       84.66078       44.73897
H         84.38108       86.80646       46.00948
H         82.40013       87.02094       43.66159
H         84.15911       87.43426       43.63934
H         83.44007       84.99757       42.70941
H         84.62537       84.98389       44.08145
H         81.56292       84.85007       44.37733
H         82.77292       83.57571       44.81212
N         81.35859       87.79943       46.75751
C         80.49885       88.92704       47.11231
C         81.14099       89.94796       48.04932
O         80.52081       90.98030       48.26612
C         79.16143       88.42223       47.70065
C         79.32594       87.68115       49.03845
C         77.99890       87.18969       49.53067
O         77.80460       85.99604       49.69428
O         77.01361       88.06745       49.79224
H         81.02406       86.84748       46.95398
H         80.25898       89.45852       46.16402
H         78.68870       87.73744       46.96169
H         78.47746       89.28765       47.84488
H         79.75960       88.36073       49.80310
H         80.00612       86.81410       48.91289
N         82.35666       89.74959       48.63850
C         82.98804       90.73015       49.50094
H         83.96803       91.02144       49.06768
H         82.37903       91.65131       49.62066
H         83.15381       90.28767       50.50468
H         82.87261       88.87313       48.48525
Ca        75.06615       83.81824       48.56942
O         76.42811       85.31664       46.21242
H         75.95223       84.77533       45.53361
H         76.94951       84.65650       46.73338
O         74.77602       87.19081       51.29128
H         74.11969       87.01883       50.57063
H         74.72649       88.16744       51.44524

Ca 1.0



