%chk=apoCaM-CA-Ng.loop1.water3.frame462.chk
%nprocshared=20
%mem=10GB
%nosave
#b3lyp/svp scf=(tight,noincore,xqc) Test 
#IOP(5/87=12) Density=Current Pop=(MK,readradii) iop(6/33=2) iop(6/42=6)

apoCaM-CA-Ng.loop1.water3.frame462 

   0  1 
C         58.01592       60.43929       66.21389
C         56.71884       60.61999       65.48209
O         56.10324       59.64106       65.08440
H         58.82802       60.95786       65.66113
H         57.93352       60.88197       67.22945
H         58.27371       59.36421       66.30966
N         56.23661       61.87463       65.28459
C         54.96953       62.16844       64.61985
C         55.00965       61.99253       63.09536
O         54.10625       62.49437       62.44930
C         54.49396       63.59160       65.02065
C         55.41832       64.69487       64.59233
O         55.62790       64.89531       63.41045
O         55.99762       65.48788       65.51387
H         56.77135       62.65574       65.69620
H         54.18585       61.50993       65.03211
H         54.39516       63.62477       66.12827
H         53.48417       63.78822       64.59674
N         56.00631       61.33737       62.43358
C         56.14933       61.34881       60.97600
C         56.08384       59.92923       60.40293
O         56.64222       59.04745       61.04283
C         57.51119       62.00158       60.65246
C         57.65656       63.37403       61.33495
C         58.99660       64.03499       60.99512
C         59.37565       65.14186       61.99593
N         58.44127       66.26658       62.00649
H         56.75475       60.87253       62.96289
H         55.38301       61.98830       60.51206
H         57.64444       62.11935       59.56473
H         58.32779       61.34205       61.01931
H         57.62439       63.20494       62.43184
H         56.81847       64.04897       61.05113
H         58.97861       64.41201       59.94847
H         59.79803       63.26991       61.07466
H         60.38997       65.51733       61.74066
H         59.42720       64.69476       63.01472
H         58.74400       66.94199       62.74590
H         58.44226       66.74822       61.07987
H         57.47721       65.94976       62.23803
N         55.52024       59.58076       59.19566
C         54.88688       60.45928       58.20671
C         55.84120       61.56785       57.82265
O         55.56697       62.72243       58.10878
C         53.48101       60.91944       58.66540
C         52.56112       59.74871       58.86604
O         51.45749       59.92006       59.35846
O         52.97100       58.50152       58.55976
H         55.60221       58.59051       58.91567
H         54.68818       59.88370       57.27407
H         53.01908       61.58080       57.90233
H         53.53578       61.46807       59.61998
N         57.02068       61.32108       57.18736
C         57.42055       60.00092       56.71659
C         58.75969       60.01799       56.00187
O         59.41439       61.04845       55.96530
H         57.62943       62.13161       57.00566
H         56.65298       59.65355       55.99095
H         57.48620       59.28989       57.56373
N         59.24344       58.92540       55.34700
C         58.56975       57.63857       55.24304
C         57.95935       57.54018       53.86340
O         58.65134       57.77224       52.88041
C         59.54122       56.48902       55.59322
C         60.77026       56.40567       54.72413
O         61.98909       56.57962       55.26962
O         60.67825       56.14605       53.53553
H         60.12169       59.04520       54.81700
H         57.74152       57.55725       55.97782
H         59.00299       55.51771       55.54347
H         59.86841       56.64001       56.64530
N         56.63634       57.25253       53.71311
C         55.98512       57.31269       52.42128
C         55.86568       58.75750       52.00370
O         56.44325       59.15476       51.00269
H         56.06619       57.00391       54.53636
H         54.95543       56.89847       52.49431
H         56.54838       56.69758       51.68531
N         55.07611       59.58974       52.74003
C         54.83286       60.99595       52.43439
C         54.97824       61.84816       53.69586
O         54.56235       61.41844       54.76323
C         53.43915       61.17073       51.77975
C         52.26866       60.63192       52.61196
O         53.42619       60.58297       50.50067
H         54.56019       59.17706       53.53274
H         55.55473       61.36724       51.67225
H         53.27570       62.26085       51.63147
H         53.51146       59.60004       50.60975
H         52.35952       59.53488       52.75828
H         52.22867       61.12778       53.59894
H         51.31565       60.83025       52.07814
N         55.57683       63.07475       53.63663
C         55.84514       63.92226       54.80743
C         54.61342       64.63526       55.41732
O         54.80980       65.61396       56.12471
C         57.01682       64.92636       54.52475
C         56.64931       66.01095       53.47750
C         58.29877       64.15917       54.13080
C         57.69790       67.12407       53.37858
H         55.94002       63.37253       52.72025
H         56.25325       63.27941       55.60491
H         57.23705       65.44312       55.48609
H         55.69908       66.50030       53.77622
H         56.50236       65.56026       52.47386
H         58.18007       63.63676       53.15868
H         59.17212       64.83627       54.05507
H         58.54602       63.40499       54.90603
H         57.83522       67.60913       54.36914
H         58.67464       66.74134       53.02133
H         57.35481       67.89426       52.65654
N         53.32920       64.21080       55.22179
C         52.14082       64.92479       55.72101
C         52.01550       65.06068       57.25063
O         51.10654       65.75323       57.68533
C         50.85089       64.25176       55.17452
C         50.62570       62.84557       55.76632
O         50.93084       64.17402       53.77407
H         53.17576       63.38887       54.63081
H         52.19179       65.95467       55.30217
H         49.98225       64.89317       55.45158
H         50.02446       63.93958       53.44437
H         51.47384       62.16672       55.55055
H         50.50027       62.89620       56.86524
H         49.70016       62.40047       55.34623
N         52.84465       64.41096       58.11763
C         52.76278       64.44231       59.58653
C         51.46946       63.79588       60.10906
O         50.56245       63.54245       59.33028
C         52.96391       65.88926       60.13932
C         54.26379       66.53911       59.64121
O         52.94648       65.91211       61.54308
H         53.58306       63.83455       57.71348
H         53.60026       63.81618       59.96476
H         52.12519       66.52940       59.79675
H         53.72163       65.38069       61.85749
H         54.26706       66.61889       58.53585
H         54.35127       67.56579       60.05819
H         55.14757       65.94902       59.96551
N         51.33195       63.47946       61.43406
C         50.10450       62.96496       62.04086
C         50.24305       61.54575       62.61629
O         49.27866       61.07618       63.20419
C         49.67271       63.93942       63.16386
C         49.44682       65.37020       62.63814
C         48.92530       66.34581       63.70675
C         49.91859       66.59826       64.85379
N         49.38596       67.58956       65.78974
H         52.11615       63.65697       62.07068
H         49.28516       62.92077       61.29056
H         50.45637       63.94623       63.95190
H         48.72239       63.57833       63.61428
H         48.68994       65.32643       61.82548
H         50.38662       65.77840       62.21082
H         47.96481       65.96629       64.11781
H         48.72644       67.31688       63.20264
H         50.88023       66.97195       64.43663
H         50.11722       65.65568       65.40676
H         50.07779       67.74562       66.55809
H         49.21965       68.49762       65.29760
H         48.48973       67.24673       66.20623
N         51.36917       60.78428       62.47044
C         51.49479       59.42880       63.02247
C         51.44629       59.44568       64.53764
O         52.21825       60.16425       65.15162
C         52.81110       58.76611       62.55082
C         53.07156       57.34905       63.12462
C         51.93967       56.35222       62.96621
O         51.44749       55.84717       63.96235
O         51.47165       55.98264       61.75710
H         52.15198       61.16100       61.92204
H         50.66891       58.79893       62.62459
H         53.67857       59.40313       62.83039
H         52.78969       58.72010       61.44890
H         53.28817       57.45191       64.21074
H         53.98689       56.93960       62.64597
N         50.59920       58.61431       65.20614
C         50.56165       58.50808       66.65090
H         50.85736       57.47874       66.94743
H         51.25233       59.22096       67.14876
H         49.53106       58.70389       67.00935
H         49.97929       57.98860       64.67106
Ca        52.33266       56.83554       59.88701
O         50.03914       54.38034       59.32310
H         50.70216       53.73365       59.67332
H         49.63459       54.78419       60.13160
O         51.78550       54.84009       56.43988
H         51.10584       55.08517       55.76271
H         51.97039       53.88246       56.26938
O         49.90270       57.08827       57.63279
H         49.63499       57.12066       56.68024
H         50.22567       58.00274       57.82865

Ca 1.0



