%chk=apoCaM-CA-Ng.loop2.water4.frame666.chk
%nprocshared=20
%mem=10GB
%nosave
#b3lyp/svp scf=(tight,noincore,xqc) Test 
#IOP(5/87=12) Density=Current Pop=(MK,readradii) iop(6/33=2) iop(6/42=6)

apoCaM-CA-Ng.loop2.water4.frame666 

   -2  1 
C         -5.99558       43.59983      -15.40477
C         -7.24658       43.00085      -15.98127
O         -7.21968       42.50538      -17.09868
H         -5.14677       43.51249      -16.11569
H         -6.16555       44.67695      -15.18936
H         -5.72990       43.08145      -14.45990
N         -8.40226       43.04011      -15.26535
C         -9.67634       42.54169      -15.76946
C         -9.66212       41.03374      -15.97246
O         -9.39874       40.30297      -15.02821
C        -10.81091       42.90613      -14.78851
C        -12.15528       42.46378      -15.30341
O        -12.58134       42.89362      -16.36386
O        -12.89088       41.58313      -14.59869
H         -8.37762       43.49105      -14.33657
H         -9.89987       43.06046      -16.72881
H        -10.83674       44.00826      -14.64573
H        -10.61877       42.43248      -13.80056
N        -10.05508       40.50657      -17.16702
C        -10.26468       39.07464      -17.38139
C         -8.95793       38.29243      -17.37447
O         -7.91278       38.90712      -17.53319
C        -10.97712       38.88264      -18.73242
H        -10.31643       41.16321      -17.91906
H        -10.92763       38.71014      -16.56612
H        -11.20502       37.82835      -18.96917
H        -11.93850       39.43965      -18.72417
H        -10.34499       39.27976      -19.55508
N         -8.90052       36.93118      -17.22011
C        -10.04334       36.07607      -16.88930
C        -10.33159       36.08830      -15.39725
O         -9.56644       36.66323      -14.63699
C         -9.84920       34.64394      -17.44598
C         -8.68863       33.86982      -16.86857
O         -7.89501       34.39305      -15.91460
O         -8.46593       32.74005      -17.27309
H         -7.96575       36.49688      -17.25370
H        -10.94926       36.46267      -17.38293
H         -9.70758       34.71713      -18.54631
H        -10.77325       34.05300      -17.26665
N        -11.46058       35.49776      -14.91602
C        -11.83849       35.50386      -13.51014
C        -13.12547       36.27856      -13.31254
O        -13.64153       36.82215      -14.28063
H        -12.10969       35.04794      -15.58030
H        -11.04715       35.95401      -12.87986
H        -11.98280       34.45185      -13.18588
N        -13.75337       36.37208      -12.10475
C        -13.27881       35.75586      -10.86287
C        -11.99154       36.39474      -10.34502
O        -11.60980       37.44653      -10.83852
C        -14.38839       35.81004       -9.77415
C        -14.79117       37.20907       -9.33180
N        -14.67368       37.58619       -8.03759
O        -15.25698       38.00033      -10.13773
H        -14.65884       36.86247      -12.10628
H        -13.08667       34.68291      -11.07834
H        -14.04844       35.23011       -8.89033
H        -15.29519       35.30056      -10.16789
H        -14.30210       36.94098       -7.32672
H        -14.96765       38.53006       -7.74274
N        -11.28741       35.81522       -9.32144
C        -10.11603       36.43191       -8.70101
C         -8.83745       35.59447       -8.70850
O         -7.86033       36.06978       -8.14711
H        -11.63032       34.92731       -8.92425
H        -10.37409       36.62990       -7.63750
H         -9.88447       37.41099       -9.16881
N         -8.74997       34.35207       -9.26913
C         -7.54171       33.51733       -9.17196
C         -6.35822       34.08446       -9.95674
O         -6.47725       34.28349      -11.15247
C         -7.84119       32.07678       -9.64929
C         -6.60148       31.17197       -9.54282
O         -8.86620       31.54621       -8.84885
H         -9.58865       33.95516       -9.71782
H         -7.26582       33.43158       -8.09650
H         -8.17271       32.11378      -10.71162
H         -9.24372       30.77025       -9.33871
H         -6.85640       30.13959       -9.85884
H         -5.78759       31.53264      -10.20703
H         -6.22589       31.14685       -8.49743
N         -5.16061       34.29734       -9.33480
C         -3.93483       34.76338       -9.99845
C         -3.38271       33.70138      -10.96586
O         -3.09389       32.59422      -10.53538
C         -2.84836       35.12139       -8.92330
C         -1.49951       35.54248       -9.57791
C         -3.36385       36.25124       -8.00016
C         -0.36685       35.76290       -8.56915
H         -5.12146       34.10705       -8.32286
H         -4.15865       35.70156      -10.54928
H         -2.66272       34.21238       -8.30812
H         -1.63806       36.46428      -10.18365
H         -1.14582       34.73599      -10.25293
H         -3.52279       37.18456       -8.58214
H         -4.31931       35.98656       -7.50677
H         -2.65194       36.45835       -7.17748
H         -0.57632       36.61036       -7.88715
H         -0.20195       34.84096       -7.97103
H          0.57165       36.00121       -9.11282
N         -3.13714       34.01948      -12.27357
C         -2.50990       33.15205      -13.27040
C         -1.19144       33.72988      -13.80128
O         -0.57235       33.05600      -14.61493
C         -3.45404       33.01254      -14.47497
C         -4.74898       32.34697      -14.13669
O         -4.78107       31.14884      -13.90466
O         -5.88635       33.06663      -14.10517
H         -3.39482       34.94849      -12.59634
H         -2.28625       32.15256      -12.83577
H         -2.98179       32.43306      -15.29952
H         -3.65735       34.03319      -14.86283
N         -0.68136       34.93468      -13.39785
C          0.61181       35.44641      -13.85421
C          0.48564       36.89500      -14.34074
O          1.13620       37.76416      -13.77662
C          1.58634       35.21719      -12.67519
C          3.03989       35.58749      -12.86089
C          3.70586       36.26747      -11.82454
C          3.76825       35.20137      -14.00145
C          5.07102       36.54702      -11.92087
C          5.13239       35.50158      -14.10126
C          5.78395       36.16684      -13.05908
H         -1.17169       35.48291      -12.67781
H          0.99647       34.84918      -14.70768
H          1.57831       34.12106      -12.48761
H          1.18254       35.70482      -11.76010
H          3.17695       36.55289      -10.92337
H          3.29144       34.66754      -14.81199
H          5.57776       37.04843      -11.10615
H          5.68965       35.20653      -14.98102
H          6.84274       36.38125      -13.12890
N         -0.32956       37.23929      -15.39418
C         -0.54323       38.59507      -15.90178
C         -0.77247       39.63750      -14.82733
O         -0.16636       40.69697      -14.89115
C         -1.80713       38.45167      -16.75972
C         -1.60155       37.08501      -17.36230
C         -1.11862       36.28487      -16.15309
H          0.32074       38.88488      -16.54295
H         -2.70786       38.38165      -16.10710
H         -1.96567       39.27650      -17.48771
H         -2.48022       36.65139      -17.88530
H         -0.76328       37.17506      -18.09164
H         -1.96615       35.94515      -15.52203
H         -0.52547       35.41887      -16.51653
N         -1.61434       39.37546      -13.78782
C         -1.87491       40.31112      -12.69821
C         -0.55900       40.75668      -12.09419
O         -0.27098       41.94605      -12.10952
C         -2.78111       39.73756      -11.56546
C         -4.20876       39.30892      -11.98032
C         -4.31337       37.91836      -12.54229
O         -5.50066       37.44766      -12.96664
O         -3.35170       37.17797      -12.53469
H         -2.04235       38.45386      -13.78426
H         -2.39406       41.20022      -13.12193
H         -2.90960       40.57652      -10.84655
H         -2.28774       38.91271      -11.00469
H         -4.63595       40.05930      -12.67710
H         -4.84280       39.28588      -11.06703
N          0.31471       39.84439      -11.58884
C          1.61400       40.22749      -11.08454
H          2.19673       40.72382      -11.89106
H          1.50076       40.92324      -10.22726
H          2.17176       39.32664      -10.75226
H          0.06504       38.84368      -11.59121
Ca        -5.79849       35.27167      -13.55227
O         -7.30959       38.25241      -14.76261
H         -7.33714       38.96075      -14.07199
H         -6.49480       38.44676      -15.28918
O         -8.29724       36.81778      -11.84162
H         -7.76044       36.94092      -11.01935
H         -9.16189       37.25256      -11.63878
O         -8.81383       33.54302      -13.14331
H         -8.31092       32.69060      -13.11801
H         -9.53854       33.42195      -12.48032
O         -4.99616       36.35671      -16.36328
H         -4.96296       35.37096      -16.44744
H         -4.40265       36.56143      -15.59768

Ca 1.0



