%chk=apoCaM-CA-Ng.loop3.water3.frame904.chk
%nprocshared=20
%mem=10GB
%nosave
#b3lyp/svp scf=(tight,noincore,xqc) Test 
#IOP(5/87=12) Density=Current Pop=(MK,readradii) iop(6/33=2) iop(6/42=6)

apoCaM-CA-Ng.loop3.water3.frame904 

   0  1 
C         91.69806      -13.01683       40.81361
C         91.36895      -14.44766       41.10149
O         91.28909      -14.80338       42.26697
H         92.61820      -12.95152       40.19929
H         90.84869      -12.55249       40.27060
H         91.85578      -12.45705       41.76200
N         91.16088      -15.33172       40.08221
C         90.74137      -16.70881       40.30507
C         91.83722      -17.67761       39.89421
O         92.28874      -17.65593       38.75816
C         89.41612      -16.98055       39.56520
C         88.73939      -18.25842       40.00002
O         87.63997      -18.54028       39.55284
O         89.31778      -19.09231       40.88501
H         91.28068      -15.00737       39.11034
H         90.52653      -16.85185       41.38392
H         89.57649      -16.97767       38.46551
H         88.71137      -16.16358       39.79696
N         92.28758      -18.57922       40.80792
C         93.32504      -19.58387       40.59066
C         92.99245      -20.46202       39.39653
O         93.83156      -20.61155       38.51951
C         93.46785      -20.38471       41.91807
C         94.60989      -21.40511       42.04937
C         94.34571      -22.75473       41.36464
C         95.47470      -23.77821       41.60934
N         95.66705      -24.09304       43.02955
H         91.84193      -18.55811       41.73645
H         94.29530      -19.07272       40.40124
H         92.50746      -20.87407       42.19040
H         93.67782      -19.61855       42.69882
H         94.68467      -21.61053       43.13777
H         95.56866      -20.95509       41.71459
H         94.24926      -22.61406       40.27112
H         93.39158      -23.17932       41.74812
H         96.42862      -23.39861       41.18228
H         95.20731      -24.71490       41.07195
H         96.36297      -24.86880       43.11461
H         96.05246      -23.27126       43.54664
H         94.76644      -24.40099       43.46302
N         91.77726      -21.06482       39.30048
C         91.40540      -22.01308       38.24671
C         90.23078      -21.55364       37.37351
O         89.91750      -22.26007       36.42783
C         91.08099      -23.37553       38.91291
C         90.16884      -23.20950       40.10775
O         90.54434      -23.56102       41.21406
O         89.00574      -22.54764       39.98347
H         91.09221      -20.86163       40.04223
H         92.25008      -22.16580       37.53918
H         92.03046      -23.82630       39.27568
H         90.64011      -24.07466       38.17002
N         89.54563      -20.39945       37.59670
C         88.39994      -19.94524       36.80461
C         87.09811      -20.73861       36.98614
O         86.07992      -20.27032       36.49718
H         89.87700      -19.77952       38.34120
H         88.67004      -19.88711       35.72801
H         88.16989      -18.90802       37.12600
N         87.03636      -21.92997       37.64790
C         85.81074      -22.70433       37.84791
C         85.03301      -22.21392       39.06259
O         85.57117      -22.19224       40.15901
C         86.12860      -24.20555       38.07591
C         86.47137      -24.95134       36.80280
N         87.54830      -24.63526       36.05168
O         85.74901      -25.87059       36.44593
H         87.90548      -22.34546       37.97785
H         85.16412      -22.65632       36.94293
H         85.21297      -24.69592       38.47877
H         86.92757      -24.32676       38.84038
H         88.17715      -23.87675       36.32236
H         87.75399      -25.15819       35.18744
N         83.70914      -21.91843       38.94259
C         82.82084      -21.65678       40.06543
C         83.14329      -20.39073       40.82231
O         83.25023      -19.33941       40.20751
H         83.27400      -21.97148       38.00921
H         82.81114      -22.53694       40.74690
H         81.78994      -21.54394       39.66662
N         83.21018      -20.40785       42.18621
C         83.39529      -19.20418       42.99648
C         84.78581      -18.60399       42.83562
O         85.59237      -19.11874       42.07661
C         83.09212      -19.50747       44.49308
C         81.62650      -19.78088       44.75321
C         80.65797      -18.81124       44.42579
C         81.21255      -20.97496       45.36526
C         79.30652      -19.03645       44.69377
C         79.85713      -21.19407       45.64181
C         78.90086      -20.22852       45.30632
O         77.59996      -20.45233       45.58216
H         83.04477      -21.30415       42.67118
H         82.68058      -18.42679       42.65610
H         83.32143      -18.63264       45.13021
H         83.73963      -20.33987       44.84627
H         80.94318      -17.87293       43.96818
H         81.93727      -21.72935       45.64322
H         78.57772      -18.27896       44.43200
H         79.54961      -22.11314       46.12394
H         76.91100      -19.80558       45.37067
N         85.10364      -17.47737       43.54541
C         86.35747      -16.73243       43.51588
C         87.54431      -17.60470       43.88820
O         87.87478      -18.51804       43.14738
C         86.56674      -16.00167       42.16148
C         87.82851      -15.09296       42.17255
C         85.32103      -15.18831       41.76858
C         87.83971      -13.97174       43.21671
H         84.38701      -17.08062       44.16842
H         86.25069      -15.94031       44.28688
H         86.70942      -16.76279       41.36585
H         87.93363      -14.61289       41.17733
H         88.72226      -15.72393       42.34347
H         85.48662      -14.68382       40.79304
H         84.44134      -15.85560       41.65092
H         85.07631      -14.42670       42.53659
H         87.81658      -14.37526       44.24837
H         88.77880      -13.38890       43.11056
H         86.98877      -13.27732       43.06743
N         88.24205      -17.37741       45.03527
C         89.40027      -18.17881       45.41137
C         89.76245      -17.93180       46.85982
O         90.88971      -17.57049       47.16623
C         90.58912      -17.89973       44.46230
O         91.02590      -16.57079       44.56456
H         87.91838      -16.63311       45.67286
H         89.12340      -19.25402       45.34609
H         90.32682      -18.12923       43.41141
H         91.43966      -18.56319       44.72782
H         90.28183      -15.99817       44.24702
N         88.81431      -18.13878       47.81573
C         89.07049      -17.98593       49.23991
C         88.81977      -19.31214       49.94303
O         88.17455      -20.16950       49.35833
C         88.16421      -16.88501       49.78478
H         87.87033      -18.43072       47.51910
H         90.12947      -17.69611       49.39651
H         87.09580      -17.14942       49.63079
H         88.34128      -16.72725       50.86136
H         88.37357      -15.93209       49.25282
N         89.35829      -19.63117       51.15651
C         90.26074      -18.80093       51.94322
C         89.92995      -18.94119       53.42451
O         89.78622      -20.07405       53.87112
C         91.69338      -19.27591       51.69756
H         89.20755      -20.60079       51.48189
H         90.22978      -17.74709       51.61662
H         91.94048      -19.16945       50.61866
H         92.40604      -18.65153       52.27799
H         91.81867      -20.34056       51.98689
N         89.82492      -17.89484       54.29210
C         90.14881      -16.50711       53.97068
C         88.94304      -15.75046       53.43989
O         89.11374      -14.59431       53.06734
C         90.70587      -15.79474       55.22446
C         91.97820      -16.47638       55.76012
C         92.49441      -15.77622       56.98349
O         92.58599      -16.44042       58.15178
O         92.84323      -14.60788       56.92488
H         89.62659      -18.12368       55.27890
H         90.96142      -16.47870       53.21430
H         89.92769      -15.78583       56.02022
H         90.95384      -14.74107       54.96583
H         92.76836      -16.47019       54.97859
H         91.76123      -17.53272       56.02638
N         87.69993      -16.30879       53.37796
C         86.53310      -15.60592       52.88213
H         85.76999      -15.54765       53.68555
H         86.76786      -14.57329       52.54725
H         86.10591      -16.16128       52.02157
H         87.54942      -17.27689       53.69901
Ca        87.86713      -21.69394       41.73731
O         86.49326      -21.37647       44.37378
H         86.27435      -22.33928       44.29761
H         87.13759      -21.32592       45.12373
O         87.04876      -24.43604       42.30032
H         86.39822      -24.50686       41.55762
H         87.93223      -24.42860       41.85371
O         90.15219      -20.94758       43.48163
H         90.79801      -20.93131       44.23082
H         90.14383      -21.89205       43.19005

Ca 1.0



