%chk=apoCaM-CA-Ng.loop2.water4.frame1393.chk
%nprocshared=20
%mem=10GB
%nosave
#b3lyp/svp scf=(tight,noincore,xqc) Test 
#IOP(5/87=12) Density=Current Pop=(MK,readradii) iop(6/33=2) iop(6/42=6)

apoCaM-CA-Ng.loop2.water4.frame1393 

   -2  1 
C         17.80664       93.06363       45.19773
C         17.35277       91.66425       45.53441
O         17.43667       90.83480       44.63996
H         18.86555       93.01624       44.86320
H         17.19398       93.45533       44.35953
H         17.77005       93.79665       46.01742
N         16.89477       91.25355       46.75736
C         16.70423       92.07782       47.95539
C         15.29642       91.95826       48.55696
O         15.03464       92.62811       49.54709
C         17.76408       91.70769       49.01446
C         17.67773       90.29275       49.52398
O         18.49206       89.88786       50.50732
O         16.86254       89.50051       49.08181
H         16.69590       90.24576       46.83785
H         16.84678       93.14632       47.72890
H         17.64560       92.39167       49.88287
H         18.77818       91.87282       48.59080
N         14.33734       91.14836       48.02193
C         12.97423       91.05563       48.54431
C         12.83062       90.30328       49.87578
O         11.69069       90.15707       50.29857
C         12.08783       90.36084       47.49622
H         14.54979       90.63273       47.15687
H         12.56609       92.08450       48.66233
H         11.02571       90.34675       47.82342
H         12.13370       90.91635       46.53468
H         12.42640       89.31650       47.32565
N         13.87808       89.79366       50.60119
C         13.64677       88.97857       51.80323
C         14.84873       88.88757       52.75192
O         15.89805       89.45468       52.48455
C         13.11534       87.58316       51.39056
C         14.10280       86.81176       50.55722
O         13.81620       86.48227       49.41736
O         15.29625       86.45739       51.06965
H         14.83884       89.97342       50.29692
H         12.86989       89.48624       52.41760
H         12.17544       87.70942       50.81191
H         12.85776       86.97859       52.28377
N         14.69725       88.24048       53.94883
C         15.66384       88.24838       55.03974
C         16.97086       87.52280       54.79785
O         17.20254       86.97161       53.73378
H         13.78826       87.80193       54.15612
H         15.19410       87.77193       55.92750
H         15.88689       89.30527       55.30264
N         17.89619       87.53079       55.80240
C         19.26200       87.02058       55.69021
C         19.36853       85.51201       55.48924
O         20.44624       85.06993       55.11196
C         20.05225       87.44207       56.95692
C         21.51278       87.06548       56.93730
N         22.02868       86.25876       57.89564
O         22.23852       87.50272       56.05709
H         17.63309       88.01879       56.67386
H         19.72030       87.51665       54.80909
H         19.56047       86.98795       57.84603
H         19.99243       88.54699       57.06700
H         21.43464       85.88454       58.65052
H         23.02827       86.00809       57.88806
N         18.35523       84.64414       55.77595
C         18.53685       83.20129       55.64177
C         18.61012       82.77090       54.18642
O         18.38537       83.60475       53.32333
H         17.46718       84.99774       56.16097
H         17.67319       82.67460       56.09950
H         19.45435       82.91306       56.19818
N         18.86883       81.48728       53.79357
C         19.24522       80.38576       54.67218
C         20.57223       79.79640       54.20386
O         21.53688       79.87202       54.95335
C         18.12833       79.31068       54.73562
C         16.92726       79.81572       55.54422
O         17.71226       78.95295       53.44216
H         18.82006       81.28226       52.78286
H         19.40583       80.74047       55.71187
H         18.53567       78.41715       55.26386
H         17.11446       78.16592       53.53239
H         17.24531       80.05908       56.58130
H         16.48190       80.71717       55.07583
H         16.15181       79.02276       55.60495
N         20.69413       79.15913       52.99933
C         21.94218       78.51981       52.57778
C         23.00544       79.56525       52.22320
O         22.62782       80.67277       51.86854
C         21.72438       77.51349       51.39798
C         21.23979       78.19749       50.09291
C         20.77926       76.37884       51.84437
C         21.26290       77.25406       48.88801
H         19.86270       79.06892       52.40379
H         22.28807       77.91142       53.43568
H         22.70018       77.04432       51.16519
H         21.92652       79.03305       49.84324
H         20.21755       78.61215       50.21419
H         21.17536       75.89231       52.76137
H         19.76067       76.76248       52.06158
H         20.69952       75.58777       51.07321
H         20.97076       77.81066       47.97319
H         22.28839       76.85495       48.74571
H         20.55926       76.40748       49.01023
N         24.35171       79.30875       52.23677
C         24.95525       78.09801       52.78776
C         26.33203       77.78936       52.20695
O         26.95582       78.64011       51.58372
C         25.02363       78.20957       54.33142
C         25.73399       79.46108       54.78483
O         25.06732       80.38642       55.50316
O         26.90601       79.65037       54.50248
H         24.98082       80.07200       51.94000
H         24.34259       77.22349       52.50885
H         25.52113       77.31739       54.76677
H         23.99806       78.24877       54.74723
N         26.84125       76.53345       52.36353
C         28.15809       76.09443       51.91857
C         28.02646       75.08249       50.79216
O         27.21671       74.16874       50.92506
C         28.90837       75.48620       53.12844
C         30.29547       74.99110       52.77203
C         30.47464       73.79976       52.03970
C         31.42815       75.72339       53.16359
C         31.75562       73.36711       51.68964
C         32.70876       75.28789       52.80806
C         32.87215       74.11341       52.06895
H         26.24799       75.82787       52.83142
H         28.75678       76.96061       51.57323
H         28.33529       74.65240       53.59180
H         28.98352       76.29358       53.88935
H         29.62664       73.20046       51.73681
H         31.32009       76.64095       53.72741
H         31.88121       72.45440       51.12075
H         33.57532       75.86487       53.10168
H         33.86367       73.78016       51.79178
N         28.84052       75.09798       49.68959
C         29.91991       76.04969       49.44438
C         29.36304       77.38434       48.98945
O         29.82506       78.41288       49.46862
C         30.78628       75.32231       48.40592
C         29.78481       74.54285       47.58727
C         28.80282       74.06787       48.66386
H         30.58560       76.20470       50.31992
H         31.49866       75.96244       47.84296
H         31.38245       74.55571       48.95421
H         29.29685       75.26053       46.90177
H         30.20370       73.73205       46.95513
H         27.79233       73.93472       48.21828
H         29.14495       73.11524       49.12351
N         28.32568       77.44332       48.11506
C         27.71964       78.68092       47.65343
C         28.72184       79.42529       46.77434
O         29.05058       78.88864       45.72472
C         26.45123       78.34325       46.83272
C         25.36890       77.66380       47.69794
C         24.30582       77.04630       46.83812
O         24.08789       75.71726       46.89923
O         23.64254       77.73248       46.07829
H         27.91496       76.55963       47.79072
H         27.38774       79.26352       48.52942
H         26.75251       77.65262       46.01207
H         26.01727       79.25796       46.37281
H         24.92550       78.40528       48.39763
H         25.80095       76.84645       48.31130
N         29.28304       80.63484       47.07686
C         29.10689       81.40057       48.29612
H         28.67245       82.39105       48.05062
H         28.47364       80.91930       49.05606
H         30.10277       81.55809       48.76257
H         29.92655       81.04735       46.38312
Ca        18.04135       87.80554       51.20942
O         20.44187       88.49036       52.46999
H         20.60270       89.22404       53.11410
H         21.25411       87.92710       52.51228
O         19.32852       85.24184       51.18835
H         19.54838       84.50253       50.56937
H         18.34349       85.19641       51.28277
O         17.43078       86.33489       48.49571
H         16.52077       85.95628       48.40378
H         17.47067       87.05348       47.81576
O         20.35576       87.60796       49.33897
H         20.29932       87.41564       48.36976
H         20.77092       88.50516       49.39271

Ca 1.0



