%chk=apoCaM-CA-Ng.loop4.water3.frame62.chk
%nprocshared=20
%mem=10GB
%nosave
#b3lyp/svp scf=(tight,noincore,xqc) Test 
#IOP(5/87=12) Density=Current Pop=(MK,readradii) iop(6/33=2) iop(6/42=6)

apoCaM-CA-Ng.loop4.water3.frame62 

   -3  1 
C         25.45664       29.36957       79.29308
C         24.05578       29.45183       78.76410
O         23.47725       30.52549       78.82272
H         26.10578       30.08185       78.74303
H         25.45682       29.63516       80.37161
H         25.87385       28.34676       79.18353
N         23.45536       28.35386       78.21797
C         22.08560       28.30311       77.71810
C         21.70719       29.48211       76.84226
O         20.91112       30.30325       77.26280
C         21.04975       27.88223       78.79768
C         20.79183       28.78204       79.97674
O         21.36220       29.84673       80.11818
O         19.89436       28.39310       80.90231
H         24.00520       27.48439       78.14340
H         22.02515       27.42343       77.03641
H         21.37240       26.89967       79.20600
H         20.07312       27.72693       78.28674
N         22.23284       29.57698       75.58310
C         21.86564       30.53670       74.53627
C         20.45902       30.24054       73.99632
O         20.37502       29.83376       72.84507
C         22.14388       32.01850       74.92362
C         21.80474       33.01469       73.77790
C         23.61372       32.19190       75.35429
C         22.59849       32.83718       72.47902
H         22.93315       28.86805       75.31489
H         22.55140       30.32077       73.68631
H         21.50364       32.29547       75.78542
H         21.98379       34.05052       74.13855
H         20.73077       32.92786       73.52915
H         23.83335       31.57978       76.25303
H         24.31043       31.87745       74.55001
H         23.82699       33.25382       75.59645
H         23.68500       32.98120       72.64734
H         22.41805       31.84146       72.02814
H         22.26621       33.59984       71.74443
N         19.32206       30.35308       74.74855
C         18.01407       29.91843       74.26348
C         17.54334       30.79077       73.10050
O         17.31469       30.22812       72.03937
C         16.98751       29.79720       75.41958
C         15.71181       29.14309       74.96871
O         14.64599       29.72564       75.08775
O         15.73583       27.89753       74.45593
H         19.37554       30.69927       75.70780
H         18.13555       28.87113       73.90075
H         16.74390       30.76568       75.88236
H         17.42587       29.15625       76.21619
N         17.42948       32.15515       73.14793
C         17.71602       32.98712       74.30745
C         16.68574       34.07731       74.52402
O         15.84658       34.27374       73.65632
H         17.19477       32.63976       72.26713
H         18.66613       33.51823       74.12021
H         17.85105       32.38950       75.20590
N         16.70590       34.90839       75.61325
C         17.48256       34.72218       76.84238
C         18.96710       34.47210       76.58564
O         19.44770       33.40191       76.93201
C         16.83063       33.60875       77.69775
C         15.38614       33.91392       77.99321
O         15.05322       35.03441       78.66256
O         14.50886       33.14786       77.62705
H         16.04463       35.70133       75.61570
H         17.39521       35.64084       77.46437
H         17.37056       33.52253       78.66470
H         16.89266       32.63179       77.18540
N         19.78843       35.37901       75.98590
C         19.41045       36.72609       75.60716
C         19.55857       36.96815       74.12872
O         19.92591       36.07321       73.37915
H         20.76682       35.10484       75.82172
H         20.06413       37.43852       76.15388
H         18.36297       36.95449       75.88009
N         19.23573       38.19656       73.64227
C         19.24274       38.52701       72.22128
C         20.64807       38.61430       71.63746
O         20.75337       38.75553       70.42615
C         18.53527       39.88280       71.98971
C         17.06805       39.87171       72.45948
C         16.41317       41.20899       72.23702
N         16.86709       42.31673       72.87062
O         15.45179       41.29157       71.48778
H         18.91409       38.90308       74.32103
H         18.67245       37.73931       71.67951
H         18.54548       40.12479       70.90382
H         19.10122       40.67477       72.52795
H         16.98853       39.63726       73.54067
H         16.51945       39.08472       71.89704
H         17.66768       42.26721       73.51761
H         16.41119       43.22874       72.72039
N         21.76473       38.60833       72.42345
C         23.11387       38.80254       71.90156
C         23.63551       40.15354       72.35857
O         24.01191       40.93533       71.49643
C         24.05819       37.60563       72.22225
C         23.59721       36.35793       71.45410
C         24.19552       37.26446       73.71470
H         21.65981       38.53322       73.44396
H         23.09919       38.86125       70.78836
H         25.07137       37.86154       71.83768
H         23.57363       36.56592       70.36218
H         24.30681       35.51883       71.61855
H         22.58362       36.04512       71.78027
H         23.21717       36.97589       74.15216
H         24.89131       36.40740       73.84078
H         24.63101       38.10714       74.28271
N         23.65316       40.52781       73.67330
C         24.09519       41.85209       74.09895
C         24.21409       41.97888       75.61512
O         25.29509       42.33547       76.06501
C         23.22675       43.00332       73.50220
C         21.72097       42.90577       73.63355
N         20.94944       43.92062       73.17912
O         21.18539       41.91909       74.11105
H         23.32932       39.86651       74.39199
H         25.12603       42.01796       73.70911
H         23.42697       43.08969       72.41512
H         23.56963       43.95875       73.95750
H         21.37734       44.75999       72.76078
H         19.92209       43.87189       73.24912
N         23.16579       41.76392       76.46279
C         23.22026       42.09808       77.88252
C         22.95206       40.90686       78.77406
O         22.04840       40.13127       78.49493
C         22.16443       43.17606       78.19919
C         22.32837       44.41489       77.35188
C         21.27741       44.84212       76.52336
C         23.52226       45.15629       77.38133
C         21.41888       45.98683       75.73547
C         23.66372       46.29746       76.58680
C         22.61099       46.71630       75.76057
O         22.73267       47.81524       74.98956
H         22.27206       41.41944       76.09523
H         24.20845       42.52393       78.15845
H         22.24692       43.46509       79.27046
H         21.14957       42.74546       78.04456
H         20.34599       44.29076       76.48590
H         24.34582       44.85188       78.01417
H         20.60003       46.30483       75.10269
H         24.59124       46.85507       76.61517
H         23.54128       48.34669       74.97583
N         23.61535       40.81098       79.96569
C         23.28938       39.86764       81.03207
C         23.65344       38.42054       80.69270
O         23.37655       37.54079       81.49475
C         21.81273       40.07944       81.46014
C         21.50851       39.59622       82.88701
C         20.08930       39.91277       83.26879
O         19.25142       38.92309       83.63042
O         19.69258       41.06808       83.26900
H         24.33358       41.51914       80.18324
H         23.91584       40.15148       81.90771
H         21.11877       39.61050       80.73020
H         21.62140       41.17671       81.46340
H         22.18308       40.11953       83.60038
H         21.67337       38.50538       82.98004
N         24.35902       38.11080       79.56501
C         24.81710       36.76673       79.22485
C         26.33387       36.65557       79.32936
O         26.84100       35.56951       79.08189
C         24.38491       36.43897       77.78042
C         22.87539       36.22917       77.61697
C         22.43097       34.92332       78.21882
O         22.94299       33.88059       77.84791
O         21.43899       34.86792       79.12187
H         24.64890       38.86577       78.92759
H         24.40789       36.00502       79.92516
H         24.89165       35.51975       77.41108
H         24.71378       37.27361       77.12232
H         22.66945       36.17125       76.52869
H         22.30094       37.08513       78.03163
N         27.12537       37.70522       79.70228
C         28.56771       37.60882       79.81492
H         29.03930       38.33574       79.12150
H         28.87163       37.85184       80.85435
H         28.94994       36.59560       79.56919
H         26.71172       38.62103       79.92355
Ca        20.79424       32.76564       79.64907
O         23.36161       32.60582       81.33436
H         23.97422       32.76428       80.57280
H         22.92241       33.48059       81.48458
O         18.41295       30.89503       79.19095
H         17.80702       31.28283       79.87119
H         17.98700       30.03886       78.93541
O         19.15207       33.37059       81.94426
H         19.93180       33.98081       81.97623
H         18.58459       33.73210       81.21736

Ca 1.0



