%chk=apoCaM-CA-Ng.loop3.water2.frame242.chk
%nprocshared=20
%mem=10GB
%nosave
#b3lyp/svp scf=(tight,noincore,xqc) Test 
#IOP(5/87=12) Density=Current Pop=(MK,readradii) iop(6/33=2) iop(6/42=6)

apoCaM-CA-Ng.loop3.water2.frame242 

   0  1 
C         12.15476       50.32470       92.78049
C         12.31442       51.81566       92.68193
O         11.98344       52.38163       91.65070
H         11.08914       50.04814       92.64656
H         12.76204       49.83133       91.99536
H         12.49800       49.94369       93.76610
N         12.84305       52.51449       93.72480
C         13.08820       53.95344       93.73630
C         14.06869       54.35184       92.64196
O         13.84116       55.33204       91.94503
C         11.76968       54.75783       93.66955
C         10.82624       54.37181       94.77313
O         11.18943       54.52725       96.06042
O          9.72313       53.92135       94.50734
H         13.12194       51.99344       94.57071
H         13.58449       54.18962       94.70452
H         11.27561       54.59230       92.68758
H         11.98999       55.84338       93.76148
N         15.18094       53.59585       92.42191
C         16.17881       53.90484       91.40058
C         16.02240       53.03712       90.15847
O         16.74211       53.26512       89.19531
C         17.60476       53.79858       91.99487
C         17.95983       52.38318       92.50391
C         19.41197       52.30342       92.98580
C         19.74626       50.88751       93.48097
N         21.15028       50.78794       93.87710
H         15.28022       52.72710       92.96435
H         16.03526       54.94830       91.04427
H         17.70296       54.52059       92.83455
H         18.33281       54.08985       91.20648
H         17.82053       51.64805       91.68185
H         17.30258       52.09902       93.35130
H         19.57485       53.02962       93.81248
H         20.08543       52.56286       92.14073
H         19.54757       50.15223       92.66958
H         19.09800       50.63191       94.34948
H         21.34536       49.81442       94.20538
H         21.76703       50.99609       93.05822
H         21.35580       51.45698       94.65400
N         15.10527       52.03232       90.09630
C         14.91208       51.20313       88.91564
C         14.30601       52.03735       87.78931
O         13.21360       52.56128       87.95803
C         14.00840       50.01248       89.30296
C         13.85080       48.94624       88.26167
O         13.13461       47.84959       88.56845
O         14.37952       49.03609       87.16651
H         14.53872       51.82241       90.92836
H         15.89854       50.77975       88.61881
H         13.00710       50.38935       89.59958
H         14.46516       49.51208       90.18467
N         14.96968       52.20178       86.60935
C         14.45541       52.96855       85.47785
C         13.14701       52.40569       84.96880
O         12.21977       53.15962       84.71238
H         15.88941       51.74943       86.49285
H         15.20045       52.90919       84.65487
H         14.33425       54.04001       85.74933
N         13.00012       51.06180       84.85956
C         11.76970       50.37938       84.48876
C         11.24181       49.67335       85.72971
O         11.26167       48.45401       85.80499
C         12.01810       49.44799       83.27191
C         13.29848       48.64273       83.33711
N         14.19361       48.68718       82.32122
O         13.53700       47.95278       84.31167
H         13.79792       50.47227       85.13692
H         10.96361       51.08186       84.18062
H         12.06397       50.07669       82.35712
H         11.14527       48.76939       83.15624
H         14.01499       49.25345       81.47911
H         15.06450       48.13720       82.36650
N         10.72626       50.42083       86.75278
C         10.27880       49.87152       88.02515
C          9.24851       48.78482       87.86126
O          8.17458       49.04647       87.33950
H         10.66624       51.44372       86.63393
H          9.86278       50.68269       88.66108
H         11.15588       49.46191       88.55162
N          9.54843       47.51458       88.26110
C          8.66922       46.37447       88.05508
C          9.26552       45.47164       87.00262
O         10.34922       45.73296       86.50835
C          8.48091       45.57756       89.36527
C          7.78657       46.35114       90.45205
C          6.49175       46.85526       90.24643
C          8.40840       46.53869       91.69713
C          5.83114       47.53976       91.26889
C          7.74302       47.21836       92.72093
C          6.45065       47.72095       92.50951
O          5.79371       48.37155       93.49019
H         10.47857       47.32508       88.66376
H          7.68326       46.70244       87.66248
H          9.47550       45.21753       89.71296
H          7.85778       44.67849       89.17557
H          5.98898       46.71198       89.29840
H          9.40141       46.14744       91.88207
H          4.83265       47.92148       91.09800
H          8.23021       47.34711       93.67908
H          6.18165       48.50671       94.36634
N          8.56372       44.38928       86.58443
C          9.02356       43.48713       85.54480
C          8.08419       43.68765       84.38060
O          8.52959       44.15112       83.34089
C          9.08097       42.03963       86.11208
C         10.10863       41.99475       87.27920
C          9.44283       41.02401       85.01378
C         10.11842       40.67984       88.05751
H          7.63533       44.21576       86.99592
H         10.04701       43.75714       85.19681
H          8.07585       41.77729       86.51050
H          9.86369       42.78371       88.02210
H         11.13011       42.20194       86.88961
H          8.69861       41.05672       84.19222
H         10.44818       41.23979       84.59479
H          9.43120       39.98886       85.41084
H          9.11510       40.48993       88.49452
H         10.41617       39.82493       87.41991
H         10.85302       40.75594       88.88798
N          6.75033       43.46224       84.51943
C          5.77827       43.77676       83.48287
C          5.97820       42.92136       82.24684
O          5.89738       43.45848       81.15139
C          4.34573       43.64232       84.02903
O          4.16843       44.44047       85.17359
H          6.40383       43.10639       85.42389
H          5.89105       44.84786       83.19665
H          4.14388       42.58732       84.30733
H          3.60479       43.94361       83.25517
H          4.41249       45.37287       84.93095
N          6.29726       41.59371       82.34612
C          6.52716       40.71970       81.19374
C          7.69549       41.16947       80.30959
O          7.86801       40.60623       79.23623
C          5.22440       40.54891       80.40138
H          6.39511       41.17654       83.28349
H          6.78908       39.70367       81.56328
H          5.36705       39.80959       79.58454
H          4.43551       40.15484       81.07880
H          4.87336       41.50201       79.95941
N          8.57576       42.12634       80.72212
C          9.72816       42.58884       79.95909
C         11.01434       42.24911       80.70015
O         10.94387       41.69233       81.78447
C          9.60602       44.10811       79.76231
H          8.45778       42.53537       81.65174
H          9.76403       42.10368       78.95936
H          9.59592       44.62755       80.74556
H         10.44854       44.51203       79.16389
H          8.66298       44.34861       79.22745
N         12.22502       42.58769       80.16783
C         13.54462       42.37246       80.76752
C         13.98104       40.91350       80.79139
O         14.90478       40.57989       80.06063
C         13.68950       42.99571       82.16685
C         13.36084       44.48841       82.19946
C         13.59275       44.99895       83.58575
O         12.56562       45.44970       84.32424
O         14.71546       44.98145       84.06640
H         12.22287       43.08221       79.26241
H         14.27232       42.89754       80.10535
H         14.74193       42.84866       82.49878
H         13.03117       42.47911       82.89708
H         12.29581       44.64125       81.92057
H         14.00146       45.05409       81.48865
N         13.43253       39.99792       81.63902
C         13.91534       38.63651       81.71041
H         14.98764       38.63429       82.00345
H         13.34243       38.07121       82.47613
H         13.79623       38.13567       80.72737
H         12.68394       40.26241       82.28810
Ca        13.08112       46.11732       86.41024
O         16.12627       46.69239       86.80212
H         16.52868       47.31841       87.45543
H         16.82600       46.00991       86.64753
O         14.00211       44.09958       88.17988
H         14.44531       43.24720       87.94267
H         13.23856       43.83776       88.75309

Ca 1.0



