%chk=apoCaM-CA-Ng.loop2.water4.frame543.chk
%nprocshared=20
%mem=10GB
%nosave
#b3lyp/svp scf=(tight,noincore,xqc) Test 
#IOP(5/87=12) Density=Current Pop=(MK,readradii) iop(6/33=2) iop(6/42=6)

apoCaM-CA-Ng.loop2.water4.frame543 

   -2  1 
C         77.18100       36.98963       61.93668
C         76.10126       37.58870       61.08194
O         75.94313       38.80110       61.09730
H         78.16612       37.40896       61.64485
H         76.98484       37.23036       63.00321
H         77.21987       35.88508       61.82915
N         75.29680       36.79344       60.32185
C         74.20807       37.32245       59.50930
C         74.74692       38.19378       58.38769
O         75.44200       37.68585       57.52129
C         73.37225       36.16287       58.92590
C         72.21180       36.65763       58.10671
O         72.11920       36.35386       56.92790
O         71.26796       37.43555       58.67017
H         75.44248       35.77221       60.35661
H         73.54015       37.91623       60.17312
H         72.97331       35.54574       59.75993
H         74.02309       35.51317       58.29845
N         74.42251       39.51489       58.32068
C         74.84513       40.37801       57.22122
C         76.36130       40.57340       57.19109
O         76.98174       40.46925       58.23979
C         74.16729       41.74953       57.36148
H         73.81125       39.90499       59.05486
H         74.48817       39.91176       56.28356
H         73.06383       41.62404       57.36479
H         74.47492       42.23422       58.31281
H         74.42733       42.43353       56.53132
N         77.04126       40.94426       56.05969
C         76.43026       41.04015       54.73400
C         76.01919       39.66892       54.21586
O         76.43785       38.65796       54.76306
C         77.32637       41.80272       53.72886
C         78.69189       41.21468       53.48890
O         79.45502       41.77125       52.71577
O         79.09460       40.09651       54.11905
H         78.04379       41.16622       56.15971
H         75.51448       41.65418       54.82197
H         77.47122       42.83611       54.11245
H         76.79586       41.87484       52.75407
N         75.09446       39.57894       53.22130
C         74.47518       38.32755       52.81161
C         73.14798       38.15335       53.53697
O         72.84685       38.95872       54.40725
H         74.68876       40.45141       52.84894
H         75.12187       37.45350       53.04054
H         74.33523       38.36855       51.71125
N         72.27005       37.14509       53.26430
C         72.42235       36.18704       52.17993
C         73.25015       35.00202       52.64424
O         72.83011       34.28957       53.54630
C         71.02024       35.77218       51.67903
C         71.00825       34.91504       50.43707
N         69.82358       34.56853       49.88243
O         72.05062       34.54573       49.91644
H         71.38453       37.13745       53.79643
H         72.90221       36.69730       51.31862
H         70.46592       36.70439       51.42989
H         70.46691       35.24916       52.48958
H         68.93604       34.88399       50.30215
H         69.79048       33.99528       49.02684
N         74.46379       34.75739       52.07906
C         75.31165       33.64610       52.50312
C         76.73897       33.62735       51.94756
O         77.45383       32.69786       52.29477
H         74.75471       35.40904       51.34804
H         74.80240       32.69318       52.24103
H         75.41711       33.68340       53.60897
N         77.25513       34.60235       51.13757
C         78.64648       34.64023       50.68676
C         79.58042       34.71145       51.88554
O         79.26045       35.38295       52.85466
C         78.84274       35.85106       49.73630
C         80.29215       36.03528       49.27695
O         78.02237       35.66683       48.60921
H         76.67177       35.38680       50.83895
H         78.87481       33.72063       50.10273
H         78.53325       36.76958       50.27906
H         77.87812       36.56001       48.20078
H         80.95242       36.24862       50.14363
H         80.65272       35.12885       48.74837
H         80.35358       36.90473       48.58796
N         80.77716       34.05734       51.85952
C         81.70999       34.01014       52.98093
C         82.89065       34.93442       52.71119
O         83.57940       34.78282       51.71266
C         82.13838       32.53516       53.24303
C         83.28944       32.45465       54.28215
C         80.90851       31.71901       53.69361
C         83.77430       31.03063       54.56087
H         81.05054       33.57230       50.99101
H         81.21461       34.37472       53.90632
H         82.52031       32.10383       52.29106
H         82.98617       32.93158       55.23328
H         84.16623       33.01246       53.88991
H         81.15245       30.64382       53.80346
H         80.52460       32.09871       54.66407
H         80.09412       31.78247       52.94273
H         82.98780       30.42482       55.05422
H         84.08578       30.53754       53.61531
H         84.64650       31.06654       55.24708
N         83.16899       35.91966       53.61370
C         84.22747       36.91246       53.51442
C         85.21454       36.81886       54.68172
O         86.11378       37.64761       54.72325
C         83.56549       38.30310       53.54275
C         82.65250       38.52019       52.37171
O         83.11664       38.66976       51.25276
O         81.31748       38.54238       52.54645
H         82.56820       36.00063       54.43717
H         84.80417       36.79218       52.57080
H         84.32044       39.11925       53.54557
H         82.98221       38.38840       54.48540
N         85.15153       35.84067       55.64095
C         86.13680       35.72292       56.71581
C         85.46921       35.50934       58.07972
O         85.69068       34.47089       58.68764
C         87.11181       34.58219       56.33270
C         88.19494       34.33016       57.36146
C         89.06475       35.35753       57.77155
C         88.34037       33.04811       57.92235
C         90.05068       35.10577       58.73177
C         89.33201       32.80008       58.87509
C         90.18471       33.82841       59.28195
H         84.44266       35.09725       55.56770
H         86.74687       36.64737       56.79507
H         87.60284       34.85422       55.37304
H         86.52716       33.65160       56.15768
H         88.97920       36.35370       57.35803
H         87.68736       32.23813       57.62159
H         90.71180       35.90145       59.05017
H         89.43774       31.80972       59.29881
H         90.94955       33.63468       60.02291
N         84.66197       36.44952       58.66441
C         84.11539       36.30527       60.00964
C         83.00279       35.27130       60.11074
O         82.50009       35.08107       61.21044
C         83.65263       37.72365       60.35746
C         83.21805       38.25093       59.00902
C         84.32800       37.73589       58.09207
H         84.90843       36.01886       60.73637
H         82.90755       37.79768       61.17919
H         84.54858       38.31789       60.65088
H         82.27187       37.72509       58.74746
H         83.04674       39.34694       58.95469
H         83.93067       37.67237       57.05935
H         85.23476       38.37980       58.12480
N         82.58133       34.54153       59.03887
C         81.65595       33.42988       59.17214
C         82.43573       32.26321       59.74411
O         82.07562       31.76242       60.79961
C         81.01201       33.00438       57.82907
C         79.98221       33.98465       57.21753
C         80.51606       35.21552       56.53411
O         79.66497       36.00559       55.85506
O         81.70232       35.46750       56.50490
H         83.03539       34.67793       58.13289
H         80.81659       33.70362       59.85126
H         80.43028       32.08221       58.05338
H         81.77535       32.72507       57.07868
H         79.23069       34.27131       57.98307
H         79.45142       33.42230       56.41953
N         83.54316       31.80067       59.09235
C         84.36688       30.71107       59.57248
H         85.39891       31.08338       59.74659
H         83.98451       30.27600       60.51890
H         84.40178       29.91175       58.80301
H         83.83554       32.25262       58.21257
Ca        80.38159       37.54767       54.35726
O         76.98328       35.69521       54.70903
H         77.26111       34.79372       55.01064
H         76.05637       35.79556       55.04118
O         78.04743       37.17369       57.60552
H         78.12362       38.11480       57.30823
H         78.40076       37.16653       58.52882
O         78.15390       38.77092       51.72311
H         77.39800       38.92622       51.10362
H         78.92472       39.21709       51.28994
O         80.96322       39.45952       56.76676
H         81.53484       38.67410       56.57681
H         80.33430       39.14303       57.46227

Ca 1.0



