%chk=apoCaM-CA-Ng.loop2.water4.frame262.chk
%nprocshared=20
%mem=10GB
%nosave
#b3lyp/svp scf=(tight,noincore,xqc) Test 
#IOP(5/87=12) Density=Current Pop=(MK,readradii) iop(6/33=2) iop(6/42=6)

apoCaM-CA-Ng.loop2.water4.frame262 

   -2  1 
C         13.66034       27.50838       96.00870
C         12.53775       26.60141       96.42143
O         12.71333       25.39338       96.40866
H         14.56016       26.92126       95.72381
H         13.34284       28.11069       95.13066
H         13.92424       28.19037       96.84308
N         11.34695       27.12799       96.82035
C         10.17609       26.31888       97.15426
C          9.59966       25.73488       95.87491
O          9.33499       26.50354       94.95871
C          9.12130       27.20327       97.85576
C          7.92224       26.44496       98.37049
O          7.82124       25.23606       98.22855
O          6.95255       27.11424       99.02105
H         11.27397       28.15606       96.88223
H         10.46962       25.52802       97.88065
H          8.77710       28.00206       97.16315
H          9.60111       27.68842       98.73342
N          9.37671       24.39379       95.72430
C          8.91005       23.84306       94.45056
C          9.96620       24.01521       93.36831
O          9.65172       23.87414       92.19537
C          8.55120       22.36109       94.58034
H          9.55349       23.76157       96.52006
H          7.98979       24.39581       94.15662
H          8.17059       21.97068       93.61160
H          9.44214       21.76880       94.88094
H          7.75618       22.23195       95.34464
N         11.25362       24.30510       93.71028
C         12.34252       24.56824       92.79215
C         12.59172       23.34755       91.93064
O         12.63418       23.45158       90.71234
C         12.05620       25.89085       92.03456
C         13.26591       26.52245       91.40987
O         14.45787       25.91425       91.47755
O         13.18473       27.64028       90.92765
H         11.50602       24.33399       94.70112
H         13.24890       24.72736       93.42271
H         11.70746       26.62806       92.79171
H         11.24870       25.75700       91.28498
N         12.71830       22.12847       92.53338
C         12.89071       20.88120       91.81024
C         14.13228       20.12109       92.22260
O         14.35338       19.06207       91.65422
H         12.63576       22.07309       93.56097
H         12.94429       21.05816       90.71486
H         12.00795       20.23576       92.00788
N         14.99107       20.57927       93.18437
C         16.22521       19.88649       93.54713
C         16.15297       19.45511       95.02031
O         15.17793       19.77901       95.68422
C         17.38224       20.85039       93.18936
C         18.77058       20.27782       93.02385
N         19.77964       21.09880       92.65578
O         18.99176       19.08628       93.15561
H         14.79880       21.46895       93.66598
H         16.33061       18.96900       92.93005
H         17.38236       21.68633       93.91777
H         17.15362       21.27926       92.18769
H         19.60492       22.10102       92.49589
H         20.73137       20.73135       92.51102
N         17.10849       18.65548       95.57630
C         17.02207       18.07926       96.91027
C         18.23384       18.42249       97.74226
O         19.34806       18.27647       97.26043
H         17.90697       18.35538       95.01369
H         17.00734       16.97575       96.78703
H         16.08731       18.36262       97.44066
N         18.09152       18.81097       99.04183
C         19.23687       19.10242       99.90167
C         19.95341       20.35948       99.43048
O         21.17595       20.38845       99.43837
C         18.85596       19.15901      101.40907
C         17.92282       20.30630      101.82056
O         18.32391       17.92177      101.82066
H         17.14109       18.85424       99.43706
H         19.94807       18.24728       99.83920
H         19.79882       19.30472      101.98185
H         17.38522       17.86256      101.50316
H         16.94751       20.24924      101.29783
H         17.74164       20.25400      102.91614
H         18.38973       21.28152      101.60427
N         19.23769       21.42206       98.96611
C         19.82240       22.65444       98.43593
C         19.41856       22.83939       96.98368
O         18.66404       22.02537       96.46434
C         19.38364       23.88018       99.29923
C         17.83622       23.97100       99.44247
C         20.09844       23.83117      100.65831
C         17.35073       25.22538      100.16621
H         18.21045       21.33723       98.95334
H         20.93337       22.59953       98.43637
H         19.73896       24.80748       98.80199
H         17.44089       23.09584       99.99913
H         17.37874       23.97779       98.42915
H         21.19787       23.80373      100.50026
H         19.88344       24.73628      101.25919
H         19.80963       22.93559      101.23649
H         16.23992       25.22410      100.19168
H         17.70660       25.24762      101.21573
H         17.69419       26.13580       99.63300
N         19.88106       23.90887       96.26630
C         19.46174       24.17477       94.89901
C         20.66126       24.21833       93.96352
O         20.74742       25.10884       93.13514
C         18.62893       25.47358       94.91296
C         17.89741       25.72275       93.63415
O         17.09533       24.89410       93.23236
O         18.04169       26.87732       92.95745
H         20.52004       24.58398       96.71284
H         18.81033       23.35222       94.54640
H         19.26943       26.34216       95.18020
H         17.84591       25.37269       95.69730
N         21.62162       23.25265       94.03545
C         22.79000       23.17713       93.15492
C         23.65880       24.43847       93.26520
O         23.93867       24.84215       94.38479
C         23.65151       21.95483       93.54955
C         24.71406       21.68613       92.51515
C         24.35537       21.12359       91.27651
C         26.05851       22.00651       92.76244
C         25.32796       20.88804       90.30109
C         27.02616       21.78145       91.77782
C         26.66175       21.22146       90.54962
H         21.50628       22.52173       94.75472
H         22.42544       23.02190       92.11876
H         23.03432       21.03480       93.64549
H         24.10067       22.15036       94.54873
H         23.32341       20.86711       91.06910
H         26.35302       22.44993       93.70517
H         25.04609       20.45266       89.35096
H         28.05874       22.04484       91.96526
H         27.41223       21.04722       89.78964
N         24.16471       25.09628       92.16921
C         25.02721       26.27267       92.25262
C         24.22096       27.56069       92.36511
O         24.80938       28.62923       92.25346
C         25.77971       26.22058       90.91706
C         24.69994       25.74365       89.97010
C         24.03426       24.64536       90.79505
H         25.77580       26.21323       93.07306
H         26.29163       27.16304       90.62322
H         26.54739       25.41522       90.97826
H         23.98524       26.58307       89.83831
H         25.04787       25.42087       88.96627
H         22.98323       24.50720       90.46596
H         24.60648       23.70523       90.68418
N         22.87787       27.54153       92.58214
C         22.02973       28.71882       92.58940
C         21.54101       29.04011       93.99587
O         20.85185       30.03759       94.15047
C         20.82671       28.47838       91.64726
C         21.24283       28.01370       90.24229
C         20.04456       27.77336       89.36951
O         19.91439       28.38686       88.32268
O         19.12001       26.85957       89.72442
H         22.41217       26.64750       92.74106
H         22.60090       29.60258       92.22964
H         20.22278       29.40853       91.57356
H         20.19487       27.68108       92.08715
H         21.78892       27.05084       90.31525
H         21.90937       28.77168       89.77828
N         21.86881       28.25926       95.07154
C         21.46241       28.55774       96.42987
H         20.87382       29.49549       96.50313
H         20.84978       27.72083       96.82527
H         22.36895       28.66631       97.06241
H         22.43960       27.41213       94.94944
Ca        16.39173       27.05088       91.46075
O         15.76067       29.83641       92.68601
H         16.46420       29.84999       93.38278
H         14.96224       30.21825       93.12963
O         16.26971       24.70271       89.70112
H         15.99139       24.05415       90.39615
H         16.60578       24.14484       88.95737
O         17.70908       30.03114       90.10713
H         17.99095       30.57720       90.88315
H         17.03168       30.58727       89.64691
O         15.52635       28.29805       88.60366
H         14.62159       27.89989       88.65253
H         15.37183       29.22244       88.28447

Ca 1.0



