%chk=apoCaM-CA-Ng.loop4.water2.frame300.chk
%nprocshared=20
%mem=10GB
%nosave
#b3lyp/svp scf=(tight,noincore,xqc) Test 
#IOP(5/87=12) Density=Current Pop=(MK,readradii) iop(6/33=2) iop(6/42=6)

apoCaM-CA-Ng.loop4.water2.frame300 

   -3  1 
C         89.07441       42.51220       25.91261
C         90.55448       42.27808       25.89694
O         91.17775       42.54121       26.90749
H         88.60244       42.21352       24.95527
H         88.62302       41.91469       26.73469
H         88.86945       43.58723       26.10073
N         91.18252       41.75683       24.80109
C         92.60905       41.43674       24.73500
C         92.94002       40.36961       25.76317
O         93.58781       40.66096       26.74973
C         93.52159       42.70310       24.68018
C         93.56656       43.61034       25.88283
O         94.21166       43.23093       27.00143
O         93.09469       44.73442       25.81717
H         90.61034       41.52835       23.97460
H         92.80380       40.96228       23.74697
H         93.16417       43.29932       23.81175
H         94.56603       42.39545       24.45453
N         92.44236       39.10563       25.58414
C         92.56247       37.95290       26.48569
C         93.98407       37.36743       26.51238
O         94.13302       36.23294       26.07817
C         91.89668       38.22990       27.86486
C         91.85914       36.98303       28.79472
C         90.46577       38.77583       27.65862
C         91.08508       35.77445       28.25153
H         91.87693       38.94722       24.73552
H         91.93853       37.15674       26.02242
H         92.47516       39.01250       28.39201
H         91.38060       37.27158       29.75583
H         92.89671       36.66162       29.02296
H         90.48347       39.73847       27.11135
H         89.84022       38.06994       27.07421
H         89.96926       38.96174       28.62828
H         91.09404       34.96466       29.01017
H         90.02458       36.02798       28.04760
H         91.55437       35.37632       27.32998
N         95.07970       38.06614       26.93045
C         96.44347       37.57723       26.75223
C         96.83621       36.46220       27.72660
O         97.26179       35.43499       27.21613
C         97.45783       38.73987       26.68176
C         97.20830       39.61976       25.47888
O         97.24986       39.14921       24.35243
O         96.96421       40.93379       25.63372
H         94.97461       39.01791       27.28199
H         96.51942       37.13203       25.73121
H         98.48381       38.32314       26.57464
H         97.41095       39.36418       27.58736
N         96.73124       36.48505       29.09445
C         96.14018       37.51714       29.92982
C         97.06135       38.68826       30.22200
O         98.16877       38.71151       29.70612
H         96.99539       35.61778       29.58844
H         95.92359       37.06228       30.91937
H         95.17177       37.80621       29.49086
N         96.71883       39.70273       31.08073
C         95.49492       39.75532       31.89215
C         94.24529       39.67595       31.03935
O         94.32403       40.00282       29.86370
C         95.49860       41.02200       32.79156
C         95.53562       42.31217       32.01468
O         96.58234       43.14869       32.14890
O         94.60922       42.62282       31.28444
H         97.40870       40.46156       31.20141
H         95.50693       38.86107       32.55112
H         96.39587       40.97544       33.44531
H         94.61494       41.06009       33.45465
N         93.05367       39.19648       31.50018
C         92.72141       38.82212       32.86683
C         92.92951       37.36111       33.16295
O         93.53310       36.65313       32.36934
H         92.29307       39.11424       30.81820
H         91.64403       39.04369       33.01239
H         93.25829       39.42490       33.61682
N         92.41650       36.84436       34.31947
C         92.62314       35.46558       34.75217
C         91.39402       34.58678       34.55334
O         91.48778       33.40124       34.84439
C         93.15436       35.41242       36.21231
C         92.14263       35.71476       37.34340
C         91.64912       37.13355       37.40742
N         92.49653       38.16584       37.62038
O         90.45680       37.35203       37.29205
H         91.83698       37.46337       34.90116
H         93.41466       35.01062       34.11754
H         94.04827       36.06562       36.31030
H         93.49511       34.36936       36.39139
H         92.63119       35.50000       38.31782
H         91.27819       35.02109       37.24859
H         93.50585       38.00523       37.74223
H         92.13593       39.13080       37.67570
N         90.23130       35.06809       34.02213
C         89.06263       34.23313       33.74361
C         87.83197       34.66162       34.54117
O         86.79103       34.04777       34.36018
C         88.78983       34.15996       32.21301
C         89.92147       33.39852       31.50386
C         88.59040       35.53572       31.55866
H         90.16808       36.06585       33.77486
H         89.24102       33.18350       34.06882
H         87.86286       33.56454       32.05625
H         90.02449       32.37919       31.93657
H         89.69043       33.28247       30.42373
H         90.89163       33.92843       31.60939
H         89.51660       36.14604       31.61134
H         88.33680       35.40667       30.48456
H         87.76138       36.08489       32.05020
N         87.90029       35.61362       35.51939
C         86.80621       35.87162       36.45679
C         86.43936       37.34538       36.58170
O         85.26882       37.63047       36.79892
C         87.22861       35.35167       37.84850
C         87.49483       33.86392       37.83773
N         86.50692       32.98370       37.54755
O         88.61386       33.44986       38.10171
H         88.80171       36.06829       35.70337
H         85.88340       35.31970       36.17488
H         86.42782       35.55204       38.59385
H         88.14562       35.88961       38.17660
H         85.55267       33.30883       37.33525
H         86.69306       31.96971       37.54216
N         87.39378       38.31648       36.60944
C         87.15322       39.69345       37.02136
C         87.57456       40.69144       35.96148
O         88.68734       40.59036       35.46535
C         87.99589       39.96993       38.28512
C         87.54274       39.16986       39.47947
C         86.27191       39.39881       40.03238
C         88.38845       38.21855       40.07352
C         85.85611       38.69437       41.16397
C         87.96731       37.50874       41.20244
C         86.70409       37.74736       41.75476
O         86.31919       37.06887       42.85421
H         88.36693       38.06327       36.41227
H         86.08551       39.86929       37.27404
H         87.91995       41.04118       38.56872
H         89.06537       39.76013       38.05503
H         85.60868       40.13589       39.59725
H         89.37350       38.02675       39.66881
H         84.87801       38.89183       41.58396
H         88.62747       36.77900       41.65391
H         85.46117       37.21948       43.27630
N         86.78092       41.78067       35.71206
C         87.15034       42.96652       34.93471
C         86.95155       42.81111       33.43869
O         86.26929       43.64456       32.85664
C         88.56978       43.50588       35.25219
C         88.89529       43.69382       36.74797
C         87.95507       44.61693       37.47492
O         88.37442       45.65186       37.96717
O         86.66099       44.28358       37.64245
H         85.89958       41.85508       36.24323
H         86.45029       43.77864       35.23194
H         88.69034       44.48577       34.73879
H         89.33976       42.83078       34.82379
H         89.92778       44.10292       36.81199
H         88.90089       42.71640       37.26669
N         87.54019       41.80716       32.73501
C         87.48982       41.73084       31.27706
C         86.07654       41.62869       30.72996
O         85.89481       41.91963       29.55523
C         88.28771       40.51908       30.75613
C         89.75632       40.45498       31.19947
C         90.60521       41.55748       30.63862
O         91.59127       41.23968       29.78583
O         90.42535       42.72060       30.95786
H         88.07380       41.10411       33.25133
H         87.93319       42.67094       30.88313
H         88.25270       40.49645       29.64372
H         87.78966       39.59648       31.13044
H         90.13877       39.48439       30.83119
H         89.86624       40.43604       32.29962
N         85.03979       41.18338       31.49523
C         83.68317       41.06584       31.00022
H         83.00855       41.67282       31.63831
H         83.57973       41.41813       29.95198
H         83.36634       40.00314       31.04435
H         85.20977       40.88941       32.46770
Ca        93.02228       42.66829       28.81739
O         92.02030       45.41118       29.51590
H         91.35959       45.15372       28.82457
H         91.67543       45.00741       30.35142
O         96.31636       41.88519       28.82443
H         97.26538       42.16446       28.81612
H         96.11407       41.66034       27.88360

Ca 1.0



