%chk=apoCaM-CA-Ng.loop2.water4.frame352.chk
%nprocshared=20
%mem=10GB
%nosave
#b3lyp/svp scf=(tight,noincore,xqc) Test 
#IOP(5/87=12) Density=Current Pop=(MK,readradii) iop(6/33=2) iop(6/42=6)

apoCaM-CA-Ng.loop2.water4.frame352 

   -2  1 
C         65.21520      105.47038       41.32306
C         64.68622      106.76306       41.87425
O         64.87282      107.01574       43.05573
H         66.31441      105.42576       41.46716
H         64.74405      104.61791       41.85695
H         64.99555      105.37003       40.23980
N         63.98891      107.62215       41.07752
C         63.42674      108.87970       41.54850
C         61.91557      108.77633       41.52277
O         61.34253      108.59645       40.45830
C         63.93644      110.03652       40.66668
C         63.35189      111.36101       41.07573
O         63.55814      111.84026       42.31703
O         62.68659      112.00796       40.28225
H         63.81897      107.35969       40.09463
H         63.74916      109.08175       42.59350
H         63.67799      109.83387       39.60305
H         65.04368      110.09678       40.74456
N         61.20556      108.87179       42.68271
C         59.75303      108.76899       42.74076
C         59.28386      107.41069       42.24759
O         59.69170      106.39258       42.78942
C         59.25921      108.99762       44.17158
H         61.72245      109.03181       43.56131
H         59.31584      109.57763       42.11309
H         59.57290      110.00508       44.52014
H         58.14990      108.94650       44.20363
H         59.67890      108.23335       44.85993
N         58.41649      107.33938       41.20092
C         57.93026      106.09227       40.61582
C         56.72117      105.53672       41.38284
O         56.19469      104.50933       40.97807
C         57.57500      106.39277       39.13972
C         57.19343      105.20252       38.30593
O         56.05330      105.11063       37.88195
O         58.09651      104.27483       37.93407
H         58.10301      108.22687       40.77715
H         58.74828      105.33950       40.61890
H         58.44109      106.87564       38.63987
H         56.73472      107.12092       39.13682
N         56.21501      106.16394       42.48912
C         55.02861      105.72574       43.21247
C         55.14499      104.40371       43.95229
O         54.16988      104.05373       44.60300
H         56.64146      107.03973       42.81994
H         54.16812      105.67665       42.50865
H         54.78693      106.49510       43.97858
N         56.24992      103.59956       43.89716
C         56.31237      102.29901       44.55997
C         57.60227      102.14607       45.34626
O         58.67481      102.16148       44.75770
C         56.20257      101.18506       43.50409
C         54.84137      101.20816       42.85043
N         54.70444      101.47546       41.53182
O         53.84710      100.98930       43.52741
H         57.05382      103.87089       43.31690
H         55.45829      102.16941       45.26171
H         56.33672      100.18880       43.97894
H         57.00720      101.31850       42.74783
H         55.52556      101.67633       40.94386
H         53.76821      101.49681       41.10042
N         57.56069      101.96356       46.69578
C         58.73115      101.70238       47.52076
C         59.29943      100.31398       47.29042
O         58.84829       99.60798       46.39816
H         56.64841      102.00603       47.17565
H         58.40189      101.72776       48.58264
H         59.50156      102.49124       47.38340
N         60.24808       99.82375       48.14271
C         60.71046       98.43427       48.08463
C         61.58062       98.13747       46.86802
O         61.72703       96.96831       46.53952
C         61.40582       97.98446       49.39752
C         62.70870       98.73496       49.70986
O         60.51409       98.06825       50.48281
H         60.55123      100.43186       48.91668
H         59.79737       97.80120       47.99733
H         61.67307       96.91044       49.28714
H         60.38239       99.02556       50.70682
H         63.15624       98.33408       50.64303
H         63.43656       98.58572       48.89550
H         62.53643       99.82248       49.84267
N         62.17480       99.13129       46.14680
C         62.89410       98.90979       44.88949
C         62.08957       99.59065       43.79437
O         61.13746      100.29087       44.12035
C         64.36769       99.43174       45.02041
C         65.15149       98.69501       46.13861
C         65.18275       99.38976       43.71397
C         65.33715       97.18717       45.92721
H         62.07167      100.10695       46.46560
H         62.90307       97.83084       44.62851
H         64.32096      100.50327       45.31779
H         64.63787       98.85234       47.10149
H         66.15891       99.15609       46.23538
H         65.23124       98.36327       43.29511
H         64.75786      100.08082       42.95981
H         66.21791       99.74920       43.89650
H         65.90029       96.97645       44.99558
H         65.91731       96.76864       46.77632
H         64.36355       96.65986       45.89468
N         62.36236       99.39650       42.47041
C         61.54463       99.99817       41.43029
C         60.95483       98.90662       40.55551
O         61.03418       98.98253       39.34183
C         62.37689      101.05755       40.67412
C         61.52233      101.92813       39.79554
O         60.32418      101.71460       39.68714
O         62.03324      103.01415       39.19137
H         63.13916       98.78455       42.18220
H         60.68610      100.53053       41.89299
H         63.20040      100.58267       40.09760
H         62.83383      101.73030       41.43242
N         60.36159       97.83089       41.14112
C         59.78246       96.69988       40.41525
C         60.80666       96.07394       39.47150
O         61.91083       95.79905       39.92062
C         59.31540       95.62629       41.42507
C         58.25872       96.15806       42.36563
C         58.53364       96.29874       43.73802
C         56.99150       96.52287       41.87924
C         57.56012       96.80440       44.60435
C         56.01810       97.02061       42.75114
C         56.30299       97.16368       44.11175
H         60.35352       97.80515       42.17204
H         58.89918       97.05018       39.84738
H         60.20403       95.28534       42.00259
H         58.90356       94.74166       40.89158
H         59.50418       96.02939       44.13637
H         56.75601       96.41674       40.82761
H         57.78139       96.91831       45.65777
H         55.04278       97.29634       42.37158
H         55.54966       97.55297       44.78416
N         60.51961       95.78108       38.16073
C         61.46446       95.13326       37.26133
C         62.47872       96.10165       36.66158
O         63.37090       95.63671       35.96485
C         60.55533       94.51817       36.19267
C         59.45898       95.56006       36.08112
C         59.21275       95.91675       37.54594
H         62.01340       94.31432       37.77685
H         61.05709       94.23659       35.24183
H         60.08465       93.60385       36.62193
H         59.89568       96.44825       35.57170
H         58.54882       95.24455       35.52747
H         58.79167       96.94236       37.60817
H         58.52826       95.18470       38.03121
N         62.41107       97.44846       36.86634
C         63.40493       98.38180       36.34660
C         64.74732       98.11080       36.99314
O         65.69811       97.81366       36.28336
C         62.99595       99.85193       36.59875
C         61.73365      100.23860       35.81321
C         61.36206      101.67270       36.04648
O         62.14385      102.56878       35.76868
O         60.14802      101.97595       36.54164
H         61.61933       97.82399       37.39583
H         63.49517       98.24831       35.24438
H         63.82547      100.51264       36.26026
H         62.83640      100.02986       37.68320
H         60.87949       99.59677       36.11502
H         61.91660      100.09450       34.72695
N         64.89743       98.19288       38.34423
C         66.16746       97.94660       38.99082
H         66.92571       98.67122       38.62446
H         66.06264       98.06618       40.09016
H         66.50890       96.91193       38.77473
H         64.08763       98.43465       38.93480
Ca        60.31488      104.18823       38.34025
O         62.02323      105.21449       41.07954
H         61.87106      104.36913       41.57155
H         61.15305      105.42090       40.65785
O         60.24184      105.17064       35.29912
H         60.84642      105.85031       34.90801
H         60.27734      104.41261       34.66393
O         60.96675      106.98657       37.50112
H         60.73231      107.62032       38.22185
H         61.50136      107.52267       36.86408
O         63.62941      105.35581       37.75679
H         64.54220      105.13911       37.44094
H         63.63625      106.33897       37.87108

Ca 1.0



