%chk=apoCaM-CA-Ng.loop1.water3.frame997.chk
%nprocshared=20
%mem=10GB
%nosave
#b3lyp/svp scf=(tight,noincore,xqc) Test 
#IOP(5/87=12) Density=Current Pop=(MK,readradii) iop(6/33=2) iop(6/42=6)

apoCaM-CA-Ng.loop1.water3.frame997 

   0  1 
C         63.51043       62.51954       53.16501
C         62.24380       62.59699       53.96389
O         61.27114       61.94108       53.62110
H         64.34226       62.16989       53.81069
H         63.39641       61.82653       52.30552
H         63.75756       63.53071       52.77428
N         62.18626       63.42614       55.03834
C         60.98167       63.66270       55.82707
C         60.48783       65.07312       55.57428
O         61.12279       65.79621       54.81731
C         61.21903       63.31891       57.31982
C         62.59443       63.62787       57.87754
O         63.26135       62.70471       58.31963
O         63.12942       64.86555       57.90897
H         63.02886       63.97603       55.26993
H         60.13939       63.02564       55.47749
H         61.10090       62.21522       57.40837
H         60.42766       63.76858       57.95519
N         59.30253       65.50457       56.10460
C         58.72596       66.79940       55.76654
C         58.57225       67.66801       56.99797
O         57.89412       67.28041       57.93851
C         57.37565       66.61976       55.04010
C         56.88760       67.96761       54.47310
C         55.61109       67.82693       53.63480
C         55.14643       69.16932       53.03379
N         56.11874       69.73348       52.09187
H         58.76588       64.87817       56.72379
H         59.38704       67.32203       55.04352
H         56.61427       66.17249       55.71728
H         57.53176       65.92541       54.18506
H         57.69717       68.36518       53.82787
H         56.70163       68.68595       55.30094
H         54.79885       67.43398       54.28437
H         55.77935       67.10136       52.80932
H         54.94515       69.90223       53.84631
H         54.19185       68.99025       52.49158
H         56.99253       70.02614       52.58325
H         56.34409       69.03906       51.34285
H         55.70717       70.58523       51.64681
N         59.13478       68.90888       57.00377
C         58.95657       69.88643       58.07681
C         59.40006       71.28550       57.62012
O         60.13555       71.39190       56.64903
C         59.65224       69.42621       59.38349
C         61.10321       69.08298       59.20118
O         61.53770       67.84965       59.52328
O         61.89719       69.91678       58.79717
H         59.64501       69.18730       56.15545
H         57.86095       69.96993       58.24518
H         59.13565       68.52278       59.77049
H         59.58066       70.20280       60.16851
N         58.91128       72.43621       58.17339
C         58.01536       72.51900       59.31469
C         56.60609       72.88082       58.91548
O         56.30059       72.97486       57.73486
H         59.17330       73.32956       57.72771
H         58.42513       73.26499       60.02809
H         57.93079       71.55968       59.85117
N         55.66628       73.02106       59.89228
C         54.24049       73.20367       59.62368
C         53.90413       74.55716       59.00694
O         52.76108       74.73135       58.60481
C         53.41158       73.05805       60.92370
C         53.53549       71.70338       61.57561
O         52.44240       70.93177       61.72456
O         54.60695       71.30785       62.00593
H         55.98366       72.91757       60.86693
H         53.92292       72.40270       58.91795
H         52.33732       73.21323       60.68131
H         53.71614       73.84269       61.65099
N         54.80958       75.57324       58.93550
C         54.49464       76.89439       58.41069
C         55.36062       77.26562       57.22914
O         55.29408       78.40742       56.80056
H         55.76359       75.43410       59.29949
H         54.67840       77.62779       59.22460
H         53.43071       76.98784       58.10368
N         56.19313       76.35671       56.64761
C         57.11353       76.67013       55.56397
C         58.53163       76.38123       56.02282
O         58.72572       75.93616       57.14577
C         56.71903       75.89860       54.27577
C         56.67191       74.37631       54.45003
O         55.45635       76.33253       53.84077
H         56.20410       75.39124       56.99500
H         57.08000       77.75412       55.31939
H         57.46561       76.10498       53.47495
H         55.59018       77.21505       53.40413
H         56.41895       73.90124       53.47805
H         57.65293       73.98466       54.79007
H         55.88496       74.08268       55.17547
N         59.58900       76.64414       55.20413
C         60.96872       76.43560       55.63751
C         61.35199       77.45411       56.72100
O         62.37100       77.26002       57.37086
C         61.92490       76.41189       54.40136
C         61.48148       75.35189       53.34322
C         63.39710       76.17525       54.78596
C         61.41928       73.90344       53.84830
H         59.40359       77.01130       54.26101
H         61.02465       75.43227       56.11125
H         61.87762       77.40594       53.90347
H         62.17977       75.39290       52.47954
H         60.47795       75.60430       52.94377
H         63.78493       77.00337       55.41066
H         63.52389       75.22116       55.33748
H         64.02824       76.14925       53.87180
H         60.66714       73.78879       54.65576
H         61.10815       73.23869       53.01524
H         62.40788       73.55805       54.21111
N         60.55457       78.52687       57.01359
C         60.78471       79.44464       58.12656
C         60.97555       80.86966       57.62879
O         60.97162       81.08853       56.42286
C         59.61645       79.31884       59.14613
C         58.25399       79.74019       58.58147
O         59.52188       77.99095       59.59342
H         59.71747       78.70194       56.44127
H         61.71512       79.17324       58.67252
H         59.80728       79.97693       60.02306
H         60.28950       77.83718       60.20461
H         57.94543       79.09204       57.73683
H         57.48128       79.64840       59.37404
H         58.27924       80.79700       58.24237
N         61.15668       81.89436       58.51295
C         61.40606       83.27283       58.11271
C         62.73251       83.71523       58.71692
O         63.66366       83.95400       57.96206
C         60.18921       84.16371       58.47594
C         60.37803       85.61624       58.02928
O         59.92165       84.12045       59.85373
H         61.12773       81.69191       59.52361
H         61.50711       83.33158       57.00483
H         59.31681       83.74267       57.91978
H         58.94959       84.28793       59.96933
H         59.46140       86.20056       58.25963
H         61.23630       86.08295       58.55665
H         60.55350       85.66173       56.93339
N         62.89823       83.82016       60.07005
C         64.17345       84.12674       60.70826
C         64.48051       83.07577       61.75839
O         63.59124       82.70647       62.51387
C         64.15201       85.52557       61.36563
C         65.55018       85.86550       61.92991
C         65.66182       87.27516       62.51134
C         67.10116       87.51319       63.00398
N         67.26442       88.85668       63.55374
H         62.09129       83.66288       60.68770
H         64.99105       84.15483       59.95447
H         63.38517       85.57393       62.16998
H         63.89372       86.27509       60.58607
H         66.29361       85.77148       61.10711
H         65.81552       85.14616       62.73369
H         64.95057       87.38853       63.35812
H         65.41300       88.02031       61.72518
H         67.81028       87.38141       62.15540
H         67.35755       86.76419       63.78716
H         66.63025       88.98836       64.37436
H         68.25514       88.97592       63.86777
H         67.05454       89.57186       62.82036
N         65.76291       82.66232       61.95817
C         66.12791       81.79491       63.06872
C         65.56091       80.39299       62.88492
O         64.81639       79.97124       63.75838
C         67.65415       81.80874       63.31640
C         68.02232       81.11233       64.63642
C         69.49198       81.23284       64.91774
O         69.91592       81.87530       66.02332
O         70.30858       80.74729       64.15148
H         66.50768       83.06394       61.36820
H         65.69245       82.24526       63.99172
H         67.97333       82.87230       63.39940
H         68.21604       81.34993       62.47984
H         67.74519       80.03760       64.59871
H         67.46183       81.59180       65.46964
N         65.82378       79.58485       61.81354
C         66.63390       79.92168       60.65894
H         67.47959       79.20758       60.58125
H         66.01134       79.83989       59.74353
H         67.04492       80.94174       60.68134
H         65.39547       78.64622       61.80330
Ca        62.36812       66.81775       57.08564
O         62.29377       69.20471       55.22393
H         61.64400       69.85151       54.85126
H         62.90242       69.00275       54.46989
O         64.90822       66.60556       59.69875
H         64.52323       65.79922       60.12567
H         64.56137       67.36035       60.23746
O         64.98488       69.43096       57.26643
H         65.31372       69.33627       58.19564
H         64.38581       70.21890       57.29438

Ca 1.0



