%chk=apoCaM-CA-Ng.loop1.water6.frame639.chk
%nprocshared=20
%mem=10GB
%nosave
#b3lyp/svp scf=(tight,noincore,xqc) Test 
#IOP(5/87=12) Density=Current Pop=(MK,readradii) iop(6/33=2) iop(6/42=6)

apoCaM-CA-Ng.loop1.water6.frame639 

   0  1 
C         69.91905       40.65292       27.72113
C         68.46689       40.27670       27.72960
O         68.14448       39.11827       27.50889
H         70.55685       39.77314       27.49189
H         70.09577       41.43219       26.94953
H         70.20510       41.05626       28.71528
N         67.52850       41.23266       27.96755
C         66.08873       40.98308       27.97111
C         65.42787       41.71821       26.81528
O         66.11556       42.41932       26.08568
C         65.49561       41.34934       29.34782
C         65.85899       42.73907       29.79644
O         66.56635       42.90870       30.93021
O         65.54033       43.71226       29.13383
H         67.85460       42.19875       28.12866
H         65.87973       39.90479       27.79573
H         65.89889       40.63454       30.09848
H         64.39118       41.23261       29.33625
N         64.10691       41.51270       26.52680
C         63.48231       42.01696       25.30557
C         62.10245       42.61163       25.55943
O         61.20677       41.91509       26.01370
C         63.47916       40.90515       24.23505
C         62.77153       39.59817       24.63341
C         63.03893       38.51156       23.57975
C         62.44327       37.14438       23.95299
N         60.98030       37.15121       23.94252
H         63.57182       40.85903       27.11780
H         64.11784       42.81581       24.86437
H         64.54430       40.66375       24.04022
H         63.04827       41.29539       23.28762
H         61.68496       39.78267       24.74598
H         63.17976       39.22799       25.59718
H         64.14078       38.37573       23.50175
H         62.65831       38.83148       22.58568
H         62.81652       36.82735       24.95272
H         62.79841       36.39907       23.20726
H         60.60328       37.80105       24.66739
H         60.63271       37.42888       22.99589
H         60.63767       36.18662       24.15570
N         61.87803       43.92415       25.26820
C         60.60352       44.62335       25.39955
C         60.26687       45.29147       24.06304
O         60.35946       46.50789       23.97253
C         60.63359       45.60785       26.59486
C         61.90236       46.38481       26.78952
O         63.01291       45.71409       27.15567
O         61.89805       47.60446       26.76947
H         62.66976       44.48576       24.91960
H         59.75906       43.95205       25.66324
H         60.52157       45.01673       27.52960
H         59.74919       46.28079       26.53520
N         59.84745       44.58697       22.96410
C         59.58785       43.15332       22.95333
C         60.45380       42.37419       21.99723
O         60.43194       41.15522       22.10200
H         59.64360       45.11277       22.09948
H         58.51947       42.96788       22.71255
H         59.76589       42.70811       23.94324
N         61.22926       42.96561       21.04102
C         62.15749       42.20005       20.21354
C         63.54779       42.80014       20.27245
O         63.70222       43.95458       20.65094
C         61.63566       42.00976       18.77588
C         61.43078       43.26714       17.97174
O         61.71170       44.48408       18.47461
O         60.99856       43.17879       16.83373
H         61.17485       43.98341       20.89973
H         62.24909       41.17321       20.63201
H         60.66015       41.47884       18.83796
H         62.34351       41.35362       18.22368
N         64.62772       42.01962       20.00770
C         65.98384       42.50256       20.19231
C         66.94146       41.34069       20.18273
O         67.10220       40.70183       19.15226
H         64.46976       41.02793       19.76700
H         66.04334       42.99448       21.18762
H         66.24657       43.26052       19.42257
N         67.55717       40.97302       21.34190
C         68.41930       39.80841       21.47421
C         69.76233       40.23430       22.01184
O         69.81566       40.82386       23.08293
C         67.75740       38.73623       22.37910
C         67.43442       39.19328       23.81262
O         66.56953       38.30995       21.76250
H         67.37004       41.52571       22.19215
H         68.57077       39.32213       20.48479
H         68.47480       37.88237       22.44125
H         66.45018       37.35099       21.99065
H         66.95625       38.36037       24.36827
H         68.34488       39.47309       24.37647
H         66.73483       40.05058       23.80941
N         70.90061       39.98840       21.30690
C         72.21818       40.35699       21.80668
C         72.69626       41.62862       21.11567
O         73.60719       42.26601       21.62301
C         73.17848       39.13375       21.71669
C         72.54384       37.84448       22.31918
C         74.54720       39.41253       22.35836
C         72.13868       37.94038       23.79402
H         70.83304       39.53849       20.38004
H         72.13138       40.64550       22.87635
H         73.35606       38.91404       20.63989
H         73.25591       36.99891       22.20095
H         71.63472       37.57679       21.73797
H         75.06377       40.24574       21.84234
H         74.44180       39.66977       23.43239
H         75.19830       38.51671       22.26634
H         73.01497       38.14697       24.43957
H         71.37294       38.72669       23.94874
H         71.69231       36.97461       24.11263
N         72.06961       42.10213       19.99807
C         72.30343       43.42192       19.42503
C         73.06215       43.27037       18.11542
O         73.36691       42.14619       17.74106
C         70.91610       44.11402       19.25745
C         70.14395       44.17375       20.58427
O         71.06382       45.42201       18.77353
H         71.35668       41.52876       19.52601
H         72.93990       44.03634       20.09802
H         70.31973       43.50755       18.53301
H         70.21683       45.65729       18.31082
H         70.71347       44.75866       21.33678
H         69.15713       44.65821       20.42435
H         69.95322       43.15609       20.98549
N         73.41161       44.35997       17.36597
C         74.12660       44.24025       16.09802
C         75.37937       45.12501       16.03203
O         76.12853       44.97694       15.07569
C         73.12424       44.56854       14.96639
C         73.59738       44.11862       13.58151
O         72.84205       45.94572       14.96700
H         73.10865       45.29360       17.66573
H         74.45503       43.18716       15.96511
H         72.19461       43.98790       15.18197
H         71.93540       46.05957       14.58038
H         73.78003       43.02194       13.58944
H         72.80224       44.32813       12.83530
H         74.51842       44.64221       13.26301
N         75.66910       46.07340       16.97680
C         76.80277       47.00001       16.88488
C         76.83202       47.87140       18.13184
O         75.81832       48.49132       18.43370
C         76.69077       47.90124       15.62407
C         77.99881       48.66376       15.34732
C         77.90911       49.47194       14.04350
C         79.27204       50.07307       13.66881
N         79.18826       50.82927       12.41901
H         75.05270       46.16288       17.79592
H         77.73874       46.40212       16.81312
H         75.82955       48.59918       15.71838
H         76.51085       47.27806       14.72761
H         78.81273       47.91288       15.23904
H         78.25087       49.34055       16.19246
H         77.15204       50.27824       14.15827
H         77.59156       48.80102       13.21500
H         80.00994       49.24868       13.54198
H         79.63000       50.74162       14.48221
H         78.53780       51.63999       12.53297
H         80.13867       51.18878       12.17168
H         78.85147       50.21260       11.64380
N         77.94632       47.97515       18.90970
C         77.93358       48.72012       20.16426
C         77.06396       47.99323       21.18969
O         76.08917       48.59192       21.62076
C         79.35290       49.02260       20.69074
C         80.10107       49.99211       19.76323
C         81.46042       50.31555       20.31305
O         82.46231       50.05514       19.66669
O         81.58053       50.90608       21.51806
H         78.81661       47.51353       18.60283
H         77.47948       49.72291       19.98304
H         79.95679       48.10634       20.79752
H         79.25848       49.50728       21.68858
H         79.52808       50.94055       19.66965
H         80.20319       49.54235       18.75209
N         77.27953       46.71464       21.62680
C         78.36884       45.85334       21.21685
H         79.33795       46.24886       21.56810
H         78.25292       44.85570       21.69086
H         78.36800       45.70762       20.11852
H         76.60232       46.31335       22.29452
Ca        64.79939       46.66229       28.14968
O         67.52502       47.49606       28.79220
H         68.31584       47.05200       28.39566
H         67.69186       47.48276       29.76798
O         65.19701       45.99886       31.40345
H         65.94036       45.38578       31.62915
H         64.87746       46.32965       32.28000
O         65.91052       45.43066       25.56829
H         65.90690       44.93229       26.42344
H         64.98821       45.33386       25.22274
O         65.12058       49.00888       26.49182
H         64.46248       48.37001       26.11871
H         65.98336       48.73244       26.09283
O         62.92849       48.27301       29.87725
H         62.47776       48.72667       29.12159
H         62.37851       47.46732       30.04739
O         62.80287       43.90030       29.50385
H         61.91744       44.18245       29.84208
H         62.61400       43.44764       28.64335

Ca 1.0



