%chk=apoCaM-CA-Ng.loop2.water2.frame861.chk
%nprocshared=20
%mem=10GB
%nosave
#b3lyp/svp scf=(tight,noincore,xqc) Test 
#IOP(5/87=12) Density=Current Pop=(MK,readradii) iop(6/33=2) iop(6/42=6)

apoCaM-CA-Ng.loop2.water2.frame861 

   -2  1 
C         65.40726       48.18848       75.81812
C         64.83691       48.08456       74.43645
O         64.44344       47.00074       74.02814
H         66.45105       48.56282       75.76227
H         64.79717       48.89481       76.41908
H         65.40835       47.19723       76.31921
N         64.77203       49.19078       73.64444
C         64.25694       49.15254       72.27918
C         62.73524       48.94554       72.24029
O         62.18943       48.85851       71.14947
C         64.64242       50.46790       71.55434
C         64.52608       50.42010       70.04914
O         64.17719       49.28999       69.40296
O         64.80976       51.41209       69.39751
H         65.15412       50.07557       74.01535
H         64.77881       48.32103       71.75545
H         65.71143       50.69202       71.76288
H         64.02999       51.30367       71.96024
N         61.97521       48.88739       73.37860
C         60.51526       48.80826       73.34732
C         59.89120       49.52816       74.54415
O         60.60286       49.80572       75.49968
C         60.08882       47.33620       73.35783
H         62.43428       48.96113       74.29403
H         60.17151       49.31259       72.42140
H         60.52630       46.80008       72.49030
H         60.44571       46.84564       74.29078
H         58.98687       47.23409       73.31058
N         58.57384       49.88604       74.61083
C         57.59305       49.79462       73.52905
C         57.10588       51.19360       73.17168
O         57.36050       52.13775       73.90755
C         56.41275       48.85500       73.88000
C         55.80919       49.13485       75.22436
O         56.46355       48.92415       76.23345
O         54.55203       49.59016       75.35401
H         58.26650       50.34369       75.48321
H         58.05486       49.38966       72.61061
H         56.75942       47.80027       73.89947
H         55.63744       48.93432       73.08730
N         56.47532       51.40433       71.98333
C         56.09002       52.71996       71.49815
C         54.71483       52.66695       70.88156
O         54.63104       52.78900       69.66767
H         56.35646       50.60477       71.34168
H         56.80624       52.98345       70.68900
H         56.16707       53.51298       72.27100
N         53.57448       52.45121       71.59236
C         53.48024       52.39090       73.04581
C         53.66956       53.79664       73.60272
O         52.96544       54.69519       73.16164
C         52.08842       51.82060       73.41469
C         51.87652       51.50790       74.87254
N         50.70978       50.95236       75.27007
O         52.75004       51.72534       75.69415
H         52.70241       52.34812       71.04766
H         54.23146       51.67455       73.44258
H         51.96748       50.85563       72.87493
H         51.29091       52.51472       73.07138
H         49.96720       50.74461       74.58724
H         50.54757       50.71939       76.25814
N         54.58811       54.06372       74.57465
C         54.84409       55.40763       75.08362
C         54.28455       55.64050       76.47264
O         54.47651       56.72973       76.99403
H         55.12221       53.28439       74.98295
H         54.38147       56.17786       74.42976
H         55.94088       55.58532       75.07261
N         53.53366       54.69834       77.10870
C         52.87271       54.90158       78.39255
C         53.36311       53.87691       79.40306
O         54.21015       53.05793       79.07258
C         51.33513       54.80666       78.18954
C         50.82527       55.90005       77.24597
O         50.97861       53.55489       77.66069
H         53.37390       53.79712       76.65023
H         53.10228       55.90770       78.80775
H         50.80487       54.97349       79.15481
H         50.90964       52.92735       78.42547
H         49.72204       55.82191       77.14071
H         51.06812       56.90437       77.65422
H         51.27907       55.80039       76.23710
N         52.85437       53.86546       80.66749
C         53.25736       52.91351       81.69452
C         52.07101       52.01216       81.98230
O         51.01960       52.50123       82.37256
C         53.75891       53.67920       82.95165
C         54.07674       52.75560       84.15809
C         54.97465       54.55739       82.59650
C         55.19943       51.74199       83.92777
H         52.12881       54.55393       80.91847
H         54.09295       52.27963       81.32747
H         52.94431       54.35926       83.28795
H         53.15800       52.20050       84.44548
H         54.35882       53.39061       85.02626
H         54.71134       55.29381       81.80852
H         55.31634       55.12431       83.48799
H         55.81696       53.94240       82.21571
H         54.94401       51.05388       83.10052
H         56.16161       52.24526       83.70576
H         55.33792       51.14182       84.85066
N         52.17804       50.67002       81.76856
C         51.08420       49.71718       81.91189
C         51.37628       48.68103       82.99082
O         50.54934       47.80213       83.18999
C         50.85517       49.02820       80.55612
C         50.55389       50.03829       79.48718
O         49.46603       50.82695       79.58143
O         51.30626       50.15814       78.53602
H         53.08269       50.29367       81.45628
H         50.14329       50.23604       82.20231
H         50.00328       48.31764       80.61947
H         51.76895       48.45634       80.27857
N         52.49336       48.76019       83.77320
C         52.73248       47.90753       84.92833
C         54.22415       47.58000       85.05362
O         55.00056       48.52393       85.10640
C         52.29891       48.70645       86.17513
C         52.67066       48.00166       87.45508
C         53.65625       48.56048       88.28522
C         52.07588       46.78179       87.81576
C         54.05206       47.90397       89.45009
C         52.47309       46.12816       88.98681
C         53.46285       46.68751       89.80089
H         53.13236       49.55616       83.65285
H         52.10706       46.99651       84.87661
H         51.20489       48.90527       86.14908
H         52.81023       49.69441       86.13833
H         54.13272       49.49657       88.02011
H         51.31346       46.33514       87.18951
H         54.82106       48.33802       90.07519
H         52.01898       45.18503       89.26057
H         53.77562       46.17904       90.70277
N         54.71796       46.30493       85.20315
C         56.10541       46.03353       85.57678
C         57.18042       46.45870       84.59324
O         58.34667       46.26118       84.90798
C         56.14542       44.51744       85.78459
C         54.74361       44.24462       86.28196
C         53.92164       45.09779       85.32166
H         56.28147       46.54789       86.54961
H         56.24269       44.00860       84.79771
H         56.96515       44.16907       86.44962
H         54.45637       43.17271       86.31123
H         54.65075       44.67141       87.30827
H         53.86551       44.61032       84.32327
H         52.91227       45.23032       85.74807
N         56.89056       47.04450       83.39536
C         57.93042       47.45980       82.45750
C         58.87778       48.51865       83.01616
O         59.87719       48.78597       82.36268
C         57.31641       47.96882       81.13614
C         56.44920       49.23540       81.30129
C         55.94383       49.67061       79.96224
O         56.73380       49.99064       79.08882
O         54.62636       49.65477       79.69085
H         55.90648       47.15703       83.12218
H         58.53632       46.55553       82.22344
H         56.69472       47.15963       80.69249
H         58.14543       48.18356       80.42534
H         57.03579       50.06606       81.74898
H         55.58304       49.02152       81.96051
N         58.63434       49.17560       84.18803
C         59.52767       50.17538       84.73775
H         60.43356       50.32844       84.11409
H         58.99031       51.14289       84.81900
H         59.85392       49.85630       85.74956
H         57.77649       48.98524       84.72253
Ca        54.07401       49.89013       77.53003
O         53.33688       47.01091       77.96756
H         52.41985       47.34243       77.79472
H         53.78477       47.05010       77.08507
O         56.38506       52.38802       77.21148
H         57.30566       52.14281       77.47901
H         56.15311       51.73817       76.50256

Ca 1.0



