%chk=apoCaM-CA-Ng.loop2.water3.frame643.chk
%nprocshared=20
%mem=10GB
%nosave
#b3lyp/svp scf=(tight,noincore,xqc) Test 
#IOP(5/87=12) Density=Current Pop=(MK,readradii) iop(6/33=2) iop(6/42=6)

apoCaM-CA-Ng.loop2.water3.frame643 

   -2  1 
C         67.61077       44.13378       27.65081
C         66.14673       44.45047       27.73033
O         65.39154       43.65986       28.27796
H         68.19387       44.91473       28.18146
H         67.82583       43.14657       28.11300
H         67.92705       44.10196       26.58646
N         65.66654       45.59297       27.16702
C         64.24883       45.93614       27.17229
C         63.81130       46.26739       28.59285
O         64.35216       47.19899       29.17010
C         63.99764       47.10610       26.19756
C         62.53194       47.35365       25.96906
O         61.73576       47.73832       26.98373
O         62.05694       47.21002       24.85306
H         66.33440       46.21109       26.67840
H         63.68509       45.06383       26.77206
H         64.45378       46.83664       25.21741
H         64.49195       48.03512       26.55564
N         62.84026       45.54407       29.22396
C         62.47419       45.76837       30.62760
C         63.61752       45.30774       31.54315
O         64.44617       44.54443       31.06725
C         61.17685       45.00790       30.93654
H         62.35678       44.80632       28.68891
H         62.28431       46.85666       30.76252
H         60.82925       45.16019       31.97547
H         60.37465       45.36869       30.25555
H         61.31660       43.91926       30.76909
N         63.81074       45.73283       32.83347
C         62.93659       46.62334       33.58525
C         63.43191       48.09709       33.56127
O         64.61139       48.24393       34.30553
C         62.67693       46.08374       35.02997
C         63.87018       45.91744       35.95752
O         63.65611       45.53437       37.23014
O         65.01799       46.10686       35.58981
H         64.66954       45.40817       33.29981
H         61.95269       46.65479       33.08471
H         62.18093       45.09299       34.96230
H         61.96711       46.77478       35.53362
N         62.39399       48.94716       34.16582
C         62.63523       50.39242       34.06453
C         62.03837       51.01568       32.81887
O         61.51578       50.29668       31.97810
H         61.42480       48.70936       33.84376
H         63.71545       50.63098       34.15342
H         62.10963       50.84828       34.92609
N         62.01020       52.36632       32.62992
C         62.59501       53.36722       33.52021
C         63.55599       54.28208       32.76440
O         63.95670       55.28631       33.33500
C         61.46685       54.20232       34.17525
C         60.70568       53.41223       35.21407
N         59.36809       53.23667       35.12539
O         61.30841       52.95186       36.17319
H         61.51345       52.71980       31.79547
H         63.18464       52.91637       34.34509
H         60.79250       54.61459       33.39306
H         61.90927       55.05925       34.72781
H         58.83142       53.63067       34.34047
H         58.86536       52.71233       35.85787
N         63.99701       54.00785       31.49920
C         64.85862       54.91063       30.74593
C         66.23790       55.16573       31.33997
O         66.94702       55.97788       30.76336
H         63.68737       53.15119       31.01875
H         64.33277       55.88584       30.65043
H         65.00335       54.50442       29.72130
N         66.69192       54.54989       32.47231
C         67.98155       54.85769       33.09667
C         68.84740       53.60930       33.19722
O         68.41101       52.53867       32.80108
C         67.73327       55.44959       34.51111
C         66.95686       56.76866       34.45299
O         67.03382       54.51899       35.29952
H         66.09977       53.85121       32.94195
H         68.54802       55.60718       32.50164
H         68.71488       55.67776       34.98283
H         67.21265       54.74847       36.24881
H         66.82764       57.17220       35.47984
H         67.51356       57.51556       33.84887
H         65.95442       56.62521       34.00804
N         70.08271       53.67321       33.77635
C         70.85972       52.48736       34.10962
C         70.52902       52.12527       35.54017
O         70.77003       52.92759       36.43246
C         72.39088       52.73627       33.94837
C         73.20478       51.51489       34.47040
C         72.72652       53.04478       32.47918
C         74.71741       51.72867       34.48586
H         70.41136       54.57657       34.14731
H         70.57750       51.63627       33.44876
H         72.66646       53.61991       34.56695
H         72.96371       50.60939       33.87594
H         72.92948       51.31244       35.52663
H         72.48833       52.17149       31.83438
H         72.14823       53.92212       32.12227
H         73.79955       53.29654       32.35979
H         74.97071       52.61475       35.10647
H         75.20533       50.83644       34.93405
H         75.12286       51.85888       33.46383
N         69.99450       50.90650       35.82435
C         69.71852       50.44533       37.17603
C         70.57638       49.24212       37.54531
O         70.42426       48.76787       38.66310
C         68.21085       50.18697       37.35532
C         67.64133       49.21169       36.36881
O         66.75758       49.57131       35.60971
O         68.08239       47.94189       36.32409
H         69.79598       50.25872       35.04713
H         69.98066       51.22980       37.92016
H         67.68149       51.15890       37.23918
H         68.01272       49.82102       38.38590
N         71.56032       48.75311       36.72380
C         72.51595       47.75554       37.18557
C         72.83318       46.73150       36.08993
O         73.97132       46.69010       35.64525
C         73.79784       48.49717       37.64622
C         74.66308       47.57926       38.47471
C         75.84926       47.02707       37.96481
C         74.26151       47.25789       39.78368
C         76.60637       46.14860       38.74758
C         75.03066       46.39736       40.56840
C         76.19880       45.83632       40.04831
H         71.74945       49.20509       35.81831
H         72.11495       47.22342       38.07371
H         73.54618       49.37499       38.28182
H         74.33314       48.89815       36.75640
H         76.17526       47.25427       36.95792
H         73.35481       47.68324       40.19789
H         77.50805       45.70670       38.34496
H         74.71672       46.16283       41.57743
H         76.78699       45.15967       40.65390
N         71.91561       45.84441       35.59915
C         72.25383       44.81461       34.62264
C         72.71864       45.32367       33.26885
O         73.14109       44.50680       32.46151
C         70.94390       44.04186       34.44430
C         70.31396       44.18511       35.81384
C         70.58232       45.65765       36.11951
H         73.04273       44.17889       35.08594
H         70.28414       44.59870       33.73771
H         71.06689       43.00427       34.06673
H         69.24716       43.88764       35.87587
H         70.90380       43.55994       36.52278
H         69.89269       46.31313       35.54769
H         70.49259       45.83091       37.21165
N         72.60809       46.63793       32.91669
C         72.96869       47.11803       31.59178
C         74.48194       47.24740       31.42192
O         74.91141       47.49450       30.30299
C         72.27204       48.46395       31.25903
C         70.75005       48.36505       30.98420
C         69.76798       48.23224       32.12627
O         68.45888       48.15253       31.80279
O         70.10681       48.26830       33.29611
H         72.20454       47.30315       33.58360
H         72.61364       46.38050       30.83648
H         72.69803       48.79392       30.28510
H         72.50909       49.25459       32.00039
H         70.58167       47.52882       30.27223
H         70.45387       49.30404       30.46917
N         75.35042       47.10760       32.46628
C         76.79005       47.21912       32.33199
H         77.15387       48.06252       32.95582
H         77.26483       46.28080       32.68791
H         77.11031       47.39500       31.28361
H         74.99501       46.92794       33.41174
Ca        66.56883       48.20617       33.09139
O         67.55043       45.23151       33.53132
H         67.51700       44.77057       34.40627
H         67.27044       44.54195       32.87843
O         66.47151       50.69965       31.55249
H         67.41206       50.46519       31.34989
H         66.45118       50.81685       32.53599
O         66.40187       46.48524       30.90880
H         66.74268       45.69532       30.42279
H         66.57991       47.24972       30.30654

Ca 1.0



