%chk=apoCaM-CA-Ng.loop1.water4.frame1013.chk
%nprocshared=20
%mem=10GB
%nosave
#b3lyp/svp scf=(tight,noincore,xqc) Test 
#IOP(5/87=12) Density=Current Pop=(MK,readradii) iop(6/33=2) iop(6/42=6)

apoCaM-CA-Ng.loop1.water4.frame1013 

   0  1 
C         28.05391       19.18317       48.24520
C         27.79262       20.57904       48.73037
O         28.45237       21.49724       48.26707
H         29.10986       18.91226       48.45651
H         27.39607       18.44613       48.75267
H         27.87369       19.12665       47.15197
N         26.83965       20.81629       49.67400
C         26.56911       22.14364       50.21683
C         27.81389       22.64167       50.93236
O         28.25199       21.95829       51.85013
C         25.36861       22.05349       51.19094
C         24.91777       23.39141       51.69616
O         24.93632       23.65870       53.01601
O         24.50210       24.23164       50.91441
H         26.29137       20.01463       50.02446
H         26.28956       22.82309       49.38073
H         25.63378       21.39782       52.05014
H         24.50402       21.59172       50.66598
N         28.44932       23.80259       50.57278
C         29.69241       24.22897       51.21196
C         29.55721       25.28547       52.31674
O         30.53747       25.41725       53.03265
C         30.78184       24.62856       50.19144
C         31.07077       23.52481       49.15890
C         32.39845       23.73348       48.40475
C         32.48479       25.05243       47.62788
N         33.77117       25.17201       46.94079
H         28.04988       24.37725       49.81502
H         30.10588       23.35346       51.75982
H         31.71431       24.82039       50.76569
H         30.49936       25.56603       49.66525
H         30.22123       23.45392       48.44625
H         31.16672       22.55165       49.68705
H         32.53015       22.88749       47.69566
H         33.23171       23.70025       49.14022
H         32.38987       25.90099       48.33774
H         31.66185       25.09838       46.88108
H         33.80594       26.08626       46.43407
H         34.55340       25.14439       47.63519
H         33.88613       24.39580       46.24962
N         28.45979       26.05004       52.61607
C         27.25133       26.23350       51.82406
C         26.10863       26.82110       52.66777
O         26.27440       26.99531       53.87266
C         27.58823       27.11312       50.59119
C         28.01460       28.48591       51.01958
O         27.19035       29.50236       50.75750
O         29.00858       28.66340       51.70475
H         28.56085       26.64752       53.45399
H         26.85038       25.26331       51.50514
H         26.68430       27.20046       49.95167
H         28.38319       26.66384       49.96575
N         24.89895       27.10759       52.11210
C         23.73821       27.54488       52.87375
C         23.24582       28.93078       52.50298
O         22.16869       29.28019       52.95692
H         24.76445       26.97129       51.09732
H         23.92443       27.53638       53.97048
H         22.92379       26.81372       52.67717
N         23.97368       29.78404       51.71482
C         23.53420       31.12671       51.32667
C         22.29281       31.02247       50.45354
O         21.22373       31.42752       50.89116
C         23.30864       32.05434       52.55715
C         24.56158       32.27650       53.35902
O         24.61374       31.92484       54.52647
O         25.64228       32.83976       52.78508
H         24.88601       29.47525       51.36920
H         24.32531       31.61409       50.71971
H         22.51436       31.64818       53.21661
H         22.96360       33.04858       52.20071
N         22.31342       30.48002       49.20161
C         23.49678       30.03596       48.48085
C         24.37951       31.19878       48.07042
O         23.87968       32.13854       47.46984
H         21.41399       30.39005       48.70336
H         23.15836       29.56472       47.53234
H         24.04504       29.25597       49.05076
N         25.72412       31.15442       48.28838
C         26.66423       32.18016       47.82938
C         28.07734       31.61662       47.91916
O         28.53612       31.30506       49.00737
C         26.48576       33.50762       48.60393
C         27.49264       34.57759       48.17037
O         26.61672       33.28051       49.98093
H         26.09969       30.30061       48.72329
H         26.45373       32.37935       46.75534
H         25.46312       33.89053       48.37661
H         25.95366       33.86412       50.43429
H         27.40432       34.77287       47.08125
H         27.29506       35.52310       48.71876
H         28.53177       34.25786       48.40033
N         28.76983       31.37027       46.76720
C         30.00299       30.59583       46.65780
C         31.20282       31.26966       47.30266
O         31.23336       31.40872       48.51628
C         29.79795       29.15219       47.21508
C         28.52254       28.45957       46.66081
C         31.03689       28.27846       46.97767
C         28.48129       28.29879       45.13970
H         28.34028       31.65226       45.87306
H         30.22353       30.50247       45.57173
H         29.65920       29.20613       48.31690
H         27.62548       29.03724       46.96785
H         28.42890       27.45431       47.12727
H         31.26937       28.18122       45.89759
H         31.92679       28.70024       47.48971
H         30.84463       27.27602       47.40172
H         29.32632       27.67935       44.77849
H         27.53548       27.79238       44.85458
H         28.50201       29.28647       44.63561
N         32.26410       31.65967       46.53385
C         33.51333       32.17238       47.08863
C         33.67312       33.64286       46.74157
O         34.67340       34.05636       46.17205
C         34.69924       31.25943       46.66216
C         34.94989       31.19141       45.14545
O         34.46895       29.95060       47.11813
H         32.19045       31.57274       45.50998
H         33.47907       32.14209       48.19976
H         35.62898       31.65090       47.12695
H         34.71220       29.92789       48.08000
H         35.82096       30.53147       44.94514
H         34.07894       30.76499       44.60747
H         35.18346       32.18473       44.71547
N         32.67942       34.50168       47.09573
C         32.70703       35.93573       46.83057
C         33.81725       36.60750       47.61761
O         33.82665       36.50325       48.83644
C         31.34561       36.58210       47.19301
C         30.22796       36.06831       46.27380
O         31.02615       36.31556       48.53639
H         31.85334       34.10184       47.56578
H         32.86996       36.10441       45.74255
H         31.43800       37.68275       47.03973
H         30.26878       36.90918       48.77890
H         29.27102       36.56905       46.52927
H         30.46984       36.30133       45.21506
H         30.08777       34.97192       46.37370
N         34.77728       37.33888       46.97583
C         35.84265       38.06487       47.65956
C         36.71682       37.09323       48.43470
O         36.76967       37.16738       49.65556
C         35.27307       39.19781       48.55864
C         34.34210       40.19559       47.84182
C         35.00458       40.93270       46.66847
C         34.05363       41.98566       46.07877
N         34.65922       42.65602       44.92839
H         34.74863       37.40341       45.94702
H         36.49249       38.55426       46.90183
H         36.12606       39.76208       48.99691
H         34.69702       38.76397       49.40272
H         34.01945       40.94609       48.59730
H         33.43503       39.66557       47.47825
H         35.26733       40.20323       45.87372
H         35.93097       41.43820       47.01847
H         33.81052       42.74227       46.85852
H         33.10625       41.49847       45.75723
H         33.99558       43.37727       44.56363
H         35.54977       43.12645       45.21003
H         34.85080       41.96118       44.17035
N         37.44680       36.15170       47.76711
C         38.26540       35.14996       48.44917
C         37.87925       33.73356       48.03038
O         37.41738       33.01203       48.90346
C         39.78247       35.40628       48.30305
C         40.19752       36.74720       48.92308
C         41.68721       36.92463       48.85153
O         42.50271       36.04595       49.46659
O         42.16625       37.86863       48.24431
H         37.41245       36.16663       46.73978
H         38.07716       35.20917       49.54553
H         40.12506       35.38738       47.25428
H         40.31490       34.59270       48.84467
H         39.89260       36.77999       49.99145
H         39.69298       37.57918       48.38490
N         38.03424       33.19725       46.77912
C         38.54725       33.84617       45.58968
H         39.46572       33.31822       45.25666
H         37.78780       33.77693       44.78358
H         38.78836       34.90782       45.71538
H         37.77212       32.20840       46.65170
Ca        27.08891       31.30874       52.05475
O         30.88453       31.24900       51.46722
H         30.37540       31.99305       51.05830
H         31.83389       31.50397       51.34815
O         27.42410       29.81139       54.66658
H         27.28842       30.76059       54.91332
H         26.65858       29.59978       54.07555
O         29.85782       32.37291       54.15054
H         30.78824       32.67349       53.99333
H         29.94002       31.65758       54.83013
O         28.84051       34.37192       51.76974
H         28.58978       35.30745       51.97484
H         29.75016       34.43793       51.38451

Ca 1.0



