%chk=apoCaM-CA-Ng.loop3.water3.frame662.chk
%nprocshared=20
%mem=10GB
%nosave
#b3lyp/svp scf=(tight,noincore,xqc) Test 
#IOP(5/87=12) Density=Current Pop=(MK,readradii) iop(6/33=2) iop(6/42=6)

apoCaM-CA-Ng.loop3.water3.frame662 

   0  1 
C        -23.79181       58.82469        3.46215
C        -24.97069       59.70267        3.15330
O        -26.08465       59.20194        3.09551
H        -22.84539       59.40639        3.48263
H        -23.93194       58.36126        4.46215
H        -23.70202       58.02691        2.69755
N        -24.80336       61.04355        2.99127
C        -25.92264       61.96406        2.80643
C        -26.49083       61.85191        1.38988
O        -25.78852       61.35624        0.51923
C        -25.40991       63.39288        3.13828
C        -26.43940       64.44566        3.41998
O        -26.03359       65.66959        3.80222
O        -27.62868       64.20565        3.36952
H        -23.85111       61.42768        3.10140
H        -26.69290       61.69022        3.55158
H        -24.71909       63.73768        2.33827
H        -24.82660       63.33168        4.08069
N        -27.74091       62.31578        1.07834
C        -28.26971       62.35243       -0.28581
C        -28.45009       63.78836       -0.77661
O        -28.64476       63.96696       -1.97186
C        -29.61441       61.60400       -0.39195
C        -29.53621       60.13508        0.04872
C        -30.88293       59.43274       -0.20569
C        -30.88522       57.94467        0.18233
N        -30.79093       57.74423        1.62946
H        -28.34184       62.66869        1.82844
H        -27.54184       61.87750       -0.97879
H        -29.94850       61.64153       -1.45294
H        -30.37769       62.12278        0.23089
H        -29.27240       60.09713        1.12622
H        -28.74604       59.61624       -0.53620
H        -31.09723       59.49301       -1.29564
H        -31.70341       59.95346        0.33533
H        -30.05411       57.41531       -0.33416
H        -31.84234       57.49904       -0.17017
H        -30.84238       56.71954        1.83174
H        -29.88642       58.10841        2.00200
H        -31.59157       58.21802        2.10809
N        -28.41206       64.85708        0.07298
C        -28.50162       66.24968       -0.34564
C        -27.28009       67.05589        0.11254
O        -27.22795       68.23950       -0.18330
C        -29.84981       66.84962        0.12304
C        -30.15546       66.69302        1.59067
O        -29.38945       67.27627        2.52411
O        -31.13540       66.05552        1.94120
H        -28.33260       64.69751        1.08177
H        -28.50955       66.32618       -1.45536
H        -30.65277       66.32460       -0.44087
H        -29.90175       67.92470       -0.15322
N        -26.23448       66.47903        0.78240
C        -25.01228       67.18486        1.15661
C        -25.16878       68.25936        2.21836
O        -24.15696       68.86982        2.54751
H        -26.24725       65.47158        0.97685
H        -24.56512       67.63216        0.24356
H        -24.28788       66.44216        1.55753
N        -26.36285       68.56883        2.79550
C        -26.54434       69.63746        3.77380
C        -27.21148       69.12930        5.04164
O        -27.66150       67.98693        5.06867
C        -27.44656       70.72102        3.14756
C        -26.86264       71.25512        1.86358
N        -27.51555       71.09371        0.68827
O        -25.78623       71.83317        1.88412
H        -27.19856       68.05588        2.50103
H        -25.56360       70.08686        4.04846
H        -27.59509       71.56731        3.85089
H        -28.44458       70.27106        2.94188
H        -28.42062       70.60162        0.64703
H        -27.11038       71.45066       -0.18954
N        -27.35865       69.94787        6.12272
C        -28.16672       69.60549        7.28570
C        -27.74432       68.34071        8.00470
O        -26.71096       67.76441        7.70070
H        -26.94648       70.89538        6.09130
H        -29.20507       69.45335        6.92395
H        -28.18463       70.44993        8.00758
N        -28.59058       67.81457        8.93992
C        -28.39942       66.50507        9.56352
C        -28.28270       65.43169        8.45050
O        -29.45870       65.50497        7.69756
C        -29.63602       66.14897       10.44021
C        -29.84447       67.00528       11.65700
C        -28.94860       66.93198       12.73396
C        -30.97657       67.83184       11.75560
C        -29.19109       67.66342       13.90056
C        -31.21083       68.57070       12.91727
C        -30.32616       68.48302       13.99666
O        -30.58219       69.18023       15.12146
H        -29.45595       68.33619        9.14727
H        -27.46978       66.50533       10.17349
H        -29.56945       65.10248       10.80649
H        -30.54109       66.20279        9.79505
H        -28.08098       66.28587       12.68099
H        -31.68450       67.89772       10.93819
H        -28.50400       67.58180       14.73291
H        -32.08989       69.19952       12.98309
H        -30.01033       69.12740       15.90024
N        -28.10930       64.07630        9.01794
C        -27.64001       63.00260        8.10509
C        -28.76091       62.64275        7.08193
O        -28.41099       62.85632        5.74370
C        -26.21338       63.25568        7.48473
C        -25.67377       62.05755        6.63755
C        -25.16692       63.60921        8.56007
C        -25.52048       60.72121        7.36997
H        -27.46793       64.11958        9.84318
H        -27.52020       62.11535        8.76261
H        -26.27671       64.13264        6.80303
H        -24.67828       62.33187        6.22660
H        -26.32207       61.87025        5.76939
H        -24.17275       63.77100        8.08950
H        -25.42624       64.55219        9.08086
H        -25.07535       62.79952        9.31346
H        -25.12858       59.96332        6.65783
H        -24.81221       60.79858        8.21697
H        -26.49041       60.34816        7.74243
N        -29.36834       61.32081        7.32352
C        -30.39740       60.90624        6.34967
C        -31.51064       60.12280        7.03162
O        -32.47215       59.78978        6.35049
C        -29.79655       59.99016        5.25162
O        -28.78119       60.61847        4.52506
H        -28.66404       60.56652        7.47414
H        -30.86860       61.80734        5.89489
H        -30.58637       59.63161        4.55231
H        -29.36399       59.08155        5.72461
H        -29.22341       61.14357        3.80898
N        -31.45563       59.75657        8.34897
C        -32.50532       58.95094        8.97149
C        -33.82647       59.70634        9.01614
O        -33.80273       60.92265        8.88480
C        -32.08689       58.55394       10.38957
H        -30.63236       60.01127        8.91392
H        -32.61847       58.03345        8.35370
H        -31.15291       57.95227       10.35041
H        -31.90608       59.45746       11.00891
H        -32.87502       57.96044       10.88253
N        -35.04389       59.09247        9.12445
C        -35.28550       57.65147        9.17461
C        -36.36113       57.31643       10.20126
O        -37.32140       58.06863       10.29625
C        -35.80442       57.20715        7.80615
H        -35.87436       59.70272        9.05738
H        -34.36046       57.07545        9.34971
H        -36.74553       57.73866        7.54741
H        -35.04395       57.42600        7.02704
H        -35.99953       56.11270        7.80570
N        -36.38852       56.15054       10.91043
C        -35.36011       55.11773       10.88006
C        -34.15537       55.58629       11.66182
O        -33.05140       55.52427       11.13982
C        -35.89757       53.78386       11.44515
C        -37.03260       53.23362       10.55686
C        -37.49987       51.88315       11.01411
O        -36.72790       50.93743       11.02913
O        -38.78411       51.69978       11.37542
H        -37.22339       55.97884       11.49404
H        -35.06707       54.88928        9.83079
H        -36.25186       53.90663       12.49234
H        -35.06490       53.04498       11.44086
H        -36.67431       53.13492        9.50862
H        -37.89290       53.93610       10.56318
N        -34.30733       56.10625       12.91368
C        -33.21472       56.64969       13.69485
H        -32.23611       56.55584       13.17951
H        -33.40460       57.72881       13.88083
H        -33.15726       56.12374       14.66966
H        -35.25177       56.16164       13.32423
Ca       -28.81634       65.04133        5.63540
O        -31.79147       64.83178        5.81341
H        -31.97527       64.42157        6.69539
H        -32.55260       65.44464        5.65634
O        -30.68298       67.72329        5.37466
H        -30.98363       67.77513        6.31674
H        -30.93642       68.59661        4.98299
O        -30.85805       63.32415        3.43305
H        -30.42593       63.54330        2.57063
H        -31.35504       62.48684        3.25480

Ca 1.0



