%chk=apoCaM-CA-Ng.loop1.water5.frame672.chk
%nprocshared=20
%mem=10GB
%nosave
#b3lyp/svp scf=(tight,noincore,xqc) Test 
#IOP(5/87=12) Density=Current Pop=(MK,readradii) iop(6/33=2) iop(6/42=6)

apoCaM-CA-Ng.loop1.water5.frame672 

   0  1 
C        -11.46263       31.38675       80.16966
C        -12.45331       31.12647       79.07734
O        -12.66790       32.02126       78.27140
H        -10.47972       31.63983       79.72005
H        -11.81245       32.24239       80.78514
H        -11.33388       30.50190       80.82348
N        -13.10836       29.92940       78.99128
C        -14.07860       29.63570       77.94534
C        -15.54667       29.67851       78.49647
O        -16.11243       28.44726       78.82560
C        -13.61798       28.45127       77.03612
C        -13.04522       27.14711       77.59539
O        -13.03513       26.80055       78.90009
O        -12.51171       26.38484       76.80483
H        -12.91627       29.21434       79.70326
H        -14.07201       30.49466       77.23891
H        -12.75299       28.86746       76.47169
H        -14.40849       28.22630       76.28786
N        -16.41811       30.44724       77.59139
C        -17.87463       30.36289       77.81577
C        -18.40098       29.06329       77.22095
O        -18.13704       28.80062       76.05469
C        -18.52123       31.57302       77.11599
C        -18.11661       32.91125       77.76643
C        -18.52426       34.08498       76.86019
C        -18.17795       35.46455       77.44345
N        -19.06709       35.83599       78.54535
H        -16.19720       30.24603       76.58700
H        -18.11744       30.41985       78.90178
H        -19.62726       31.50368       77.14901
H        -18.20432       31.55904       76.04974
H        -17.01344       32.96129       77.89695
H        -18.58894       32.97630       78.77056
H        -19.60817       34.04914       76.61835
H        -17.95359       33.97094       75.91213
H        -18.29820       36.22067       76.63624
H        -17.11430       35.48915       77.77066
H        -19.00078       35.15622       79.33407
H        -18.79916       36.78609       78.89091
H        -20.05438       35.87683       78.20222
N        -19.14082       28.19052       77.96406
C        -19.51042       26.86946       77.46326
C        -20.63415       26.23789       78.28639
O        -20.38549       25.27146       78.99378
C        -18.24492       25.96575       77.40107
C        -17.53498       25.76556       78.72180
O        -17.96965       26.35798       79.85190
O        -16.53951       25.06107       78.76556
H        -19.41588       28.45631       78.92154
H        -19.90166       26.94737       76.42611
H        -17.51131       26.40442       76.69265
H        -18.53889       24.97081       77.00175
N        -21.93464       26.64553       78.20257
C        -22.45209       27.68921       77.33386
C        -22.03767       29.06007       77.77879
O        -21.49720       29.80735       76.97757
H        -22.63375       26.12246       78.75333
H        -23.56191       27.66987       77.39078
H        -22.17434       27.49217       76.27542
N        -22.29267       29.46047       79.05556
C        -21.97081       30.78886       79.56852
C        -20.92091       30.70757       80.65824
O        -20.57722       29.61146       81.08213
C        -23.26182       31.47634       80.07731
C        -23.94629       30.79891       81.24872
O        -25.09296       31.31665       81.72672
O        -23.48186       29.80128       81.77860
H        -22.73325       28.77914       79.69041
H        -21.54500       31.41293       78.75338
H        -23.98534       31.51905       79.23456
H        -23.03012       32.51894       80.38050
N        -20.34289       31.83942       81.15113
C        -19.36302       31.76286       82.21939
C        -18.73353       33.09853       82.53057
O        -19.44404       34.03509       82.86718
H        -20.59825       32.75546       80.74974
H        -18.56617       31.04759       81.92627
H        -19.86084       31.37605       83.13460
N        -17.37597       33.23090       82.47198
C        -16.65609       34.45360       82.81860
C        -15.72857       34.20580       83.99690
O        -15.51222       33.05611       84.35633
C        -15.83693       34.95960       81.59901
C        -14.77830       33.95304       81.11012
O        -16.69895       35.24388       80.53182
H        -16.82062       32.40682       82.20004
H        -17.37663       35.24470       83.12075
H        -15.28535       35.88482       81.88520
H        -17.04590       36.16194       80.67882
H        -14.05859       33.70515       81.91845
H        -15.24468       33.01408       80.74546
H        -14.20585       34.38756       80.26406
N        -15.13330       35.25395       84.64198
C        -14.10227       35.07140       85.66431
C        -14.63104       35.38564       87.06262
O        -14.02569       34.92822       88.02293
C        -12.84931       35.95052       85.32475
C        -12.44478       35.82694       83.82871
C        -11.65536       35.60780       86.24123
C        -11.32991       36.79212       83.41218
H        -15.39235       36.21491       84.36999
H        -13.79836       34.00132       85.67110
H        -13.13547       37.01363       85.49311
H        -13.31295       36.09777       83.19515
H        -12.15087       34.78370       83.58629
H        -11.89954       35.75215       87.30969
H        -11.33736       34.55528       86.08034
H        -10.79352       36.27560       86.04997
H        -11.16556       36.71630       82.31682
H        -11.61834       37.83919       83.65032
H        -10.37008       36.55197       83.90963
N        -15.72645       36.17436       87.26797
C        -16.21575       36.53882       88.59809
C        -16.02646       38.03674       88.81209
O        -15.63257       38.72599       87.87814
C        -17.70327       36.11305       88.72781
C        -17.86921       34.59731       88.57589
O        -18.22026       36.49061       89.97718
H        -16.22083       36.57793       86.45856
H        -15.62281       36.02950       89.38975
H        -18.27166       36.62367       87.91298
H        -19.19035       36.66367       89.85257
H        -17.49806       34.25068       87.58896
H        -17.31282       34.06867       89.37957
H        -18.94434       34.32897       88.65528
N        -16.26336       38.60835       90.03112
C        -16.12911       40.04320       90.28391
C        -15.07866       40.38467       91.34265
O        -14.77676       41.55931       91.48099
C        -17.50829       40.64361       90.65882
C        -18.06710       40.09144       91.97748
O        -18.43634       40.37862       89.63905
H        -16.56331       38.00083       90.80607
H        -15.79177       40.55058       89.35341
H        -17.40808       41.74617       90.79045
H        -18.21619       40.98450       88.88448
H        -19.04148       40.57222       92.20332
H        -18.23356       38.99585       91.92546
H        -17.37685       40.31185       92.81409
N        -14.48595       39.42945       92.12043
C        -13.45387       39.70592       93.12624
C        -12.99490       38.40383       93.75405
O        -13.83045       37.56512       94.06560
C        -13.87811       40.70525       94.23527
C        -15.01556       40.23739       95.15428
C        -15.29985       41.29631       96.22929
C        -16.41738       40.84306       97.17596
N        -16.66972       41.85056       98.20617
H        -14.76385       38.45027       91.98092
H        -12.58619       40.17549       92.61174
H        -14.15430       41.67956       93.78534
H        -12.98281       40.89446       94.86976
H        -14.72472       39.29587       95.66510
H        -15.92912       40.05413       94.55607
H        -15.59628       42.25088       95.74143
H        -14.37520       41.47320       96.82301
H        -16.12472       39.88707       97.66488
H        -17.34906       40.67090       96.59298
H        -17.43751       41.51558       98.83177
H        -15.80848       42.00197       98.78049
H        -16.96166       42.75270       97.76470
N        -11.67691       38.17552       94.00415
C        -11.22523       36.91324       94.57010
C        -11.48503       35.77584       93.58638
O        -12.18172       34.84830       93.97289
C         -9.75477       36.97781       95.03740
C         -9.37912       35.72810       95.85312
C         -7.99259       35.83960       96.41492
O         -7.80437       35.82913       97.74890
O         -7.03042       35.93226       95.66999
H        -10.99432       38.92480       93.81460
H        -11.81287       36.73810       95.50159
H         -9.64941       37.86093       95.70622
H         -9.05212       37.10265       94.18999
H         -9.44426       34.81698       95.22097
H        -10.09330       35.61857       96.69963
N        -11.01934       35.74281       92.29938
C        -10.23185       36.76646       91.63711
H         -9.27736       36.32635       91.28280
H        -10.79564       37.14859       90.75963
H         -9.98898       37.63045       92.27191
H        -11.26792       34.92643       91.71956
Ca       -14.67331       27.47405       80.20353
O        -13.78927       24.39152       81.12526
H        -14.07335       23.97734       81.97868
H        -12.85190       24.66827       81.28421
O        -16.72672       25.13741       82.26055
H        -17.52185       24.61267       81.99088
H        -16.72353       25.09007       83.24908
O        -13.92114       26.39935       83.57908
H        -14.55511       25.96165       84.20029
H        -13.05010       26.36534       84.04849
O        -13.35118       29.04656       82.43366
H        -12.42789       28.79626       82.17743
H        -13.39451       30.02646       82.30074
O        -16.81241       28.65933       82.06398
H        -16.32806       28.89084       82.89597
H        -17.76891       28.67948       82.31817

Ca 1.0



