%chk=apoCaM-CA-Ng.loop2.water4.frame654.chk
%nprocshared=20
%mem=10GB
%nosave
#b3lyp/svp scf=(tight,noincore,xqc) Test 
#IOP(5/87=12) Density=Current Pop=(MK,readradii) iop(6/33=2) iop(6/42=6)

apoCaM-CA-Ng.loop2.water4.frame654 

   -2  1 
C        -19.60823       42.28513        1.73059
C        -20.82018       41.91338        2.52911
O        -21.59097       41.06966        2.09290
H        -18.69508       42.04028        2.31209
H        -19.58393       41.72749        0.77020
H        -19.62270       43.37370        1.51194
N        -21.06490       42.52932        3.71768
C        -22.22485       42.21050        4.53763
C        -22.07375       40.80710        5.09762
O        -21.12548       40.56661        5.83418
C        -22.37286       43.25517        5.66741
C        -23.63350       43.06943        6.47035
O        -23.82598       41.94995        7.19354
O        -24.48304       43.94638        6.48462
H        -20.41414       43.26814        4.02921
H        -23.13620       42.29361        3.90345
H        -22.40518       44.26414        5.19755
H        -21.49439       43.22580        6.34798
N        -22.98150       39.83093        4.80485
C        -22.89230       38.49264        5.38485
C        -21.64597       37.75032        4.91010
O        -21.11208       38.12002        3.87438
C        -24.13295       37.66869        5.02095
H        -23.78075       40.06526        4.19605
H        -22.85929       38.64253        6.48422
H        -24.19932       37.54325        3.91836
H        -24.09884       36.66148        5.48501
H        -25.04784       38.18627        5.37781
N        -21.08014       36.71140        5.60303
C        -21.54466       36.20952        6.89605
C        -20.58594       36.62454        7.99461
O        -19.52053       37.15059        7.69798
C        -21.78527       34.68158        6.85488
C        -20.56712       33.82204        6.60319
O        -19.45657       34.30608        6.45359
O        -20.71095       32.48405        6.55539
H        -20.21677       36.30288        5.21289
H        -22.51103       36.66871        7.16338
H        -22.53114       34.46758        6.05960
H        -22.22285       34.36143        7.82440
N        -20.92522       36.47059        9.30502
C        -20.07112       36.93138       10.38895
C        -19.89514       38.44204       10.37940
O        -20.51389       39.10935        9.56341
H        -21.82391       36.02545        9.54687
H        -19.08634       36.43804       10.29150
H        -20.52113       36.64416       11.36345
N        -19.06287       39.08686       11.24779
C        -18.22520       38.43864       12.25158
C        -16.76228       38.70006       11.92187
O        -16.48912       39.55906       11.09106
C        -18.61609       39.00707       13.63291
C        -17.87694       38.38605       14.78880
N        -17.10491       39.14512       15.60221
O        -17.99058       37.18872       15.00465
H        -18.99966       40.11592       11.17125
H        -18.38588       37.34195       12.24744
H        -19.70289       38.83821       13.79625
H        -18.44687       40.10710       13.62222
H        -17.00060       40.15795       15.44139
H        -16.60971       38.72053       16.40000
N        -15.76202       37.96626       12.49027
C        -14.35555       38.21955       12.20915
C        -13.67965       37.12790       11.40260
O        -12.51617       37.31399       11.07732
H        -16.00020       37.19688       13.13571
H        -13.81732       38.36897       13.17063
H        -14.23391       39.15536       11.62479
N        -14.30554       35.96695       11.04425
C        -13.61766       34.93072       10.27524
C        -13.47840       35.34467        8.81601
O        -14.48593       35.53276        8.15187
C        -14.36013       33.57776       10.38519
C        -13.62015       32.46412        9.62947
O        -14.45467       33.22668       11.74218
H        -15.26583       35.78701       11.37097
H        -12.61648       34.76293       10.73282
H        -15.37835       33.68890        9.95413
H        -15.18626       32.56022       11.81941
H        -13.56017       32.69339        8.54494
H        -12.59037       32.34344       10.02831
H        -14.16397       31.50340        9.74494
N        -12.24647       35.45905        8.24591
C        -12.02752       35.71621        6.82288
C        -12.09717       34.39309        6.05879
O        -11.32783       33.48979        6.35366
C        -10.66352       36.45232        6.62986
C        -10.26493       36.57175        5.13359
C        -10.74262       37.84596        7.29246
C         -8.88627       37.20760        4.92319
H        -11.42054       35.28888        8.83958
H        -12.81384       36.40144        6.43614
H         -9.87269       35.85551        7.13659
H        -11.02809       37.14932        4.56865
H        -10.20587       35.55271        4.69546
H        -11.49437       38.47932        6.77140
H        -11.03231       37.76627        8.36046
H         -9.76443       38.36544        7.26970
H         -8.62376       37.17933        3.84499
H         -8.87406       38.26973        5.24009
H         -8.11149       36.64655        5.48930
N        -12.99857       34.23257        5.04449
C        -13.16620       33.02670        4.23778
C        -12.88024       33.27757        2.75607
O        -13.01229       32.33063        1.99219
C        -14.62176       32.54322        4.37234
C        -14.96833       32.15727        5.77963
O        -14.51266       31.13498        6.26720
O        -15.78889       32.93875        6.50648
H        -13.62580       35.00979        4.82590
H        -12.47719       32.22176        4.57678
H        -14.82853       31.66816        3.71718
H        -15.28808       33.36580        4.03534
N        -12.45500       34.48545        2.26885
C        -12.11320       34.69277        0.86238
C        -12.79321       35.94624        0.30074
O        -12.09468       36.85087       -0.12557
C        -10.56970       34.73677        0.76794
C        -10.04507       34.92776       -0.63746
C         -9.19016       36.00704       -0.92354
C        -10.39201       34.03704       -1.66959
C         -8.69429       36.19259       -2.21647
C         -9.89960       34.23198       -2.96379
C         -9.05057       35.30761       -3.23658
H        -12.28322       35.26787        2.91636
H        -12.44618       33.83372        0.24386
H        -10.17359       33.77179        1.15278
H        -10.18993       35.54333        1.43434
H         -8.90328       36.70366       -0.14536
H        -11.04551       33.19585       -1.47917
H         -8.03349       37.02351       -2.42657
H        -10.17541       33.54777       -3.75571
H         -8.66741       35.45480       -4.23784
N        -14.15446       36.07168        0.22859
C        -14.85760       37.23244       -0.31449
C        -14.40488       38.57375        0.23820
O        -14.26524       39.51306       -0.53304
C        -16.31382       36.97660        0.09520
C        -16.39992       35.47486       -0.01873
C        -15.08925       35.04151        0.63524
H        -14.76770       37.22271       -1.42503
H        -16.45650       37.22210        1.17283
H        -17.06215       37.54490       -0.49875
H        -17.31203       35.00983        0.40949
H        -16.35447       35.22699       -1.10512
H        -15.15263       35.03621        1.74496
H        -14.82720       34.03336        0.24918
N        -14.18223       38.73568        1.57366
C        -13.89071       40.02729        2.19646
C        -12.62875       40.70648        1.66732
O        -12.44098       41.87594        1.97452
C        -13.76785       39.95607        3.74778
C        -14.98232       39.37429        4.50077
C        -14.99175       37.87566        4.65306
O        -16.01051       37.28811        5.31020
O        -14.04705       37.20257        4.28428
H        -14.28755       37.90229        2.15044
H        -14.75311       40.68703        1.95127
H        -13.67764       41.01193        4.08632
H        -12.83652       39.43719        4.06912
H        -15.91431       39.74454        4.02827
H        -14.95164       39.75062        5.54566
N        -11.71241       40.05299        0.89926
C        -10.51056       40.67438        0.38099
H         -9.62198       40.13740        0.77356
H        -10.51230       40.60427       -0.72689
H        -10.42796       41.74486        0.66286
H        -11.84737       39.06412        0.67614
Ca       -16.08610       35.08823        5.85082
O        -17.63359       35.08929        3.46230
H        -17.82214       35.90008        2.92726
H        -17.70327       34.33812        2.82183
O        -17.61164       34.68890        8.98454
H        -17.35103       34.93235        9.90834
H        -18.51190       34.28871        9.08137
O        -16.57824       37.86877        8.07528
H        -17.02688       38.65285        8.47940
H        -15.61238       38.08143        8.12312
O        -18.48907       38.32029        4.92129
H        -18.62905       38.66831        5.83638
H        -18.14633       39.09542        4.41298

Ca 1.0



