%chk=apoCaM-CA-Ng.loop2.water4.frame1490.chk
%nprocshared=20
%mem=10GB
%nosave
#b3lyp/svp scf=(tight,noincore,xqc) Test 
#IOP(5/87=12) Density=Current Pop=(MK,readradii) iop(6/33=2) iop(6/42=6)

apoCaM-CA-Ng.loop2.water4.frame1490 

   -2  1 
C         30.34463       90.79833       25.02398
C         31.63160       90.02303       25.03343
O         32.61095       90.52353       25.56622
H         29.54891       90.23572       25.55276
H         30.47804       91.77901       25.52713
H         30.03830       90.98643       23.97235
N         31.75546       88.80804       24.43192
C         30.67784       88.11568       23.73863
C         30.73571       88.42457       22.25110
O         29.73481       88.90348       21.73404
C         30.61829       86.61761       24.13997
C         31.92675       85.87013       24.13304
O         32.40099       85.35016       25.28145
O         32.55931       85.71200       23.10811
H         32.69507       88.38251       24.40828
H         29.68714       88.50497       24.05884
H         29.87017       86.08962       23.50815
H         30.25018       86.57620       25.18882
N         31.86016       88.23924       21.50412
C         31.93157       88.57873       20.08120
C         32.10910       87.34335       19.20701
O         32.11925       87.47705       17.99139
C         33.06900       89.57980       19.86580
H         32.70521       87.86351       21.95752
H         30.98766       89.06068       19.74621
H         34.04193       89.13112       20.16158
H         33.12280       89.89013       18.80097
H         32.89348       90.48581       20.48534
N         32.23573       86.10770       19.76201
C         32.37154       84.85890       19.03220
C         31.23935       83.90966       19.41983
O         30.60050       83.36804       18.52819
C         33.78494       84.27696       19.27045
C         34.14407       84.05329       20.71488
O         35.11336       84.77648       21.29919
O         33.56537       83.21462       21.37748
H         32.25743       86.03303       20.77774
H         32.30936       85.02859       17.93290
H         34.50909       85.01088       18.85297
H         33.90609       83.32752       18.70493
N         30.89168       83.70223       20.72754
C         29.80962       82.83016       21.14244
C         30.13530       81.35666       21.01333
O         29.24720       80.56177       21.28554
H         31.36254       84.22173       21.47531
H         28.89462       83.08726       20.56503
H         29.58832       83.01152       22.21742
N         31.37124       80.90671       20.63577
C         31.69225       79.49613       20.45920
C         32.79102       78.99877       21.41040
O         33.01019       77.79460       21.43009
C         32.10292       79.30977       18.98117
C         32.37145       77.88215       18.58742
N         31.38961       76.95380       18.64124
O         33.48533       77.56494       18.19767
H         32.11286       81.58031       20.41920
H         30.79028       78.88157       20.66758
H         33.01251       79.92378       18.79077
H         31.29254       79.69699       18.32485
H         30.44062       77.20731       18.95160
H         31.57705       75.98029       18.36019
N         33.54367       79.82460       22.20188
C         34.60928       79.28895       23.05490
C         35.55498       80.34794       23.61729
O         35.35272       81.52152       23.34605
H         33.39080       80.83832       22.15533
H         35.24038       78.62790       22.42796
H         34.15561       78.68928       23.87249
N         36.67357       80.03627       24.35077
C         37.07273       78.68622       24.75964
C         37.35155       78.56576       26.27276
O         37.54942       77.44371       26.71856
C         38.33028       78.24219       23.96828
C         38.08149       78.20773       22.45414
O         39.39829       79.11044       24.24978
H         37.31173       80.81305       24.58215
H         36.25895       77.96893       24.52850
H         38.59059       77.20651       24.29199
H         40.23343       78.62198       24.02543
H         38.99656       77.86338       21.92742
H         37.26369       77.49653       22.21407
H         37.81819       79.21586       22.06925
N         37.41912       79.64610       27.11443
C         37.68998       79.56533       28.55782
C         36.53465       80.23355       29.30574
O         36.24177       81.37603       28.97930
C         39.03878       80.28034       28.89642
C         40.27272       79.55630       28.28770
C         39.23417       80.47481       30.41721
C         40.57054       78.16659       28.87364
H         37.29032       80.59098       26.72922
H         37.78507       78.51619       28.86740
H         39.00437       81.30074       28.45263
H         41.17198       80.18672       28.46578
H         40.14597       79.46231       27.18866
H         39.20997       79.50838       30.96060
H         40.19906       80.98654       30.62018
H         38.43496       81.11828       30.83879
H         40.77523       78.22327       29.96305
H         39.73855       77.45756       28.69577
H         41.48042       77.75091       28.39244
N         35.81389       79.64692       30.31467
C         36.02847       78.31886       30.88715
C         35.82580       78.31491       32.40598
O         34.78412       78.74276       32.88026
C         35.12835       77.28874       30.17273
C         33.65665       77.61408       30.17694
O         32.95805       77.65063       31.32634
O         33.07703       77.80912       29.12049
H         35.01482       80.18475       30.68592
H         37.06222       77.96899       30.71393
H         35.28352       76.28414       30.62354
H         35.46691       77.23408       29.11379
N         36.77639       77.76935       33.22276
C         36.61090       77.56309       34.66297
C         37.76002       78.17995       35.44570
O         38.89931       77.94525       35.06519
C         36.61719       76.05169       34.96481
C         35.39238       75.34259       34.44576
C         35.50491       74.35510       33.45452
C         34.12470       75.63940       34.98032
C         34.36778       73.67733       33.00420
C         32.99187       74.95544       34.53120
C         33.11321       73.97493       33.54375
H         37.63892       77.40063       32.79335
H         35.64603       77.95294       35.01817
H         36.63862       75.88685       36.06563
H         37.54594       75.60588       34.54435
H         36.47075       74.10792       33.03268
H         34.01443       76.38762       35.75600
H         34.46046       72.91607       32.24107
H         32.02104       75.18089       34.95399
H         32.23575       73.44293       33.20000
N         37.57589       78.87327       36.61782
C         36.30533       79.14751       37.28046
C         35.37342       79.99376       36.45073
O         34.21883       79.62451       36.28730
C         36.70792       79.90602       38.55345
C         38.05200       79.28946       38.85958
C         38.68346       79.25921       37.47071
H         35.83270       78.17809       37.56141
H         36.90599       80.97794       38.32464
H         35.95573       79.85735       39.37023
H         38.65101       79.81831       39.63044
H         37.87746       78.24057       39.19556
H         39.03742       80.26752       37.16242
H         39.52178       78.52902       37.46973
N         35.82779       81.13478       35.86275
C         34.97499       81.97290       35.03693
C         33.94724       82.65398       35.93558
O         34.37186       83.44184       36.76993
C         35.81002       83.03594       34.28639
C         36.81814       82.39482       33.31244
C         37.62111       83.44131       32.59632
O         37.06766       84.26249       31.88266
O         38.96141       83.46934       32.72774
H         36.81911       81.38977       35.98735
H         34.52608       81.34015       34.25373
H         36.35642       83.67222       35.01837
H         35.11954       83.68430       33.70279
H         36.27849       81.77884       32.56108
H         37.51849       81.73178       33.86271
N         32.59858       82.43246       35.89260
C         31.89112       81.49965       35.03642
H         31.15230       82.05424       34.42275
H         32.53033       80.91624       34.35792
H         31.34595       80.77260       35.67502
H         32.00942       82.96206       36.55424
Ca        35.37312       84.42126       23.51475
O         35.29804       84.38910       26.54278
H         35.48098       85.35434       26.41711
H         36.16252       83.94561       26.35090
O         35.43713       87.27860       23.26600
H         35.03670       88.15388       23.49352
H         36.21075       87.18915       23.87799
O         38.21878       83.93563       23.06997
H         38.09251       84.20604       24.01450
H         37.91111       82.99485       23.03866
O         32.64009       82.31927       24.44274
H         33.03962       82.22321       25.34378
H         31.71542       82.63043       24.61061

Ca 1.0



