%chk=apoCaM-CA-Ng.loop4.water3.frame163.chk
%nprocshared=20
%mem=10GB
%nosave
#b3lyp/svp scf=(tight,noincore,xqc) Test 
#IOP(5/87=12) Density=Current Pop=(MK,readradii) iop(6/33=2) iop(6/42=6)

apoCaM-CA-Ng.loop4.water3.frame163 

   -3  1 
C         59.34242       76.63047       37.01979
C         58.74380       77.21534       35.78038
O         58.94369       76.64614       34.73025
H         60.02808       77.35882       37.49296
H         58.52836       76.35676       37.72355
H         59.90835       75.70368       36.77248
N         57.95232       78.32228       35.83452
C         57.19869       78.85675       34.70113
C         56.24585       77.82716       34.13558
O         56.34661       77.48280       32.97306
C         58.01065       79.67988       33.65571
C         59.29136       79.22197       32.97675
O         59.45358       78.11923       32.20971
O         60.26255       79.95454       33.08477
H         57.78976       78.75169       36.75781
H         56.50881       79.63464       35.10473
H         58.29204       80.61547       34.19365
H         57.30163       79.99579       32.85980
N         55.25062       77.35037       34.94430
C         54.14577       76.45364       34.59343
C         53.14969       77.13977       33.66038
O         52.04948       77.43141       34.11039
C         54.61314       75.05447       34.10718
C         53.42235       74.07700       33.88347
C         55.63157       74.44857       35.09134
C         52.58113       73.76586       35.13203
H         55.25349       77.68121       35.92239
H         53.60096       76.28997       35.54947
H         55.12767       75.16750       33.12949
H         53.82251       73.11578       33.49365
H         52.74541       74.49157       33.10610
H         55.95513       73.44559       34.74324
H         56.53553       75.08835       35.15906
H         55.20513       74.35565       36.11147
H         52.08781       74.67561       35.53036
H         51.77931       73.04589       34.86618
H         53.19593       73.30295       35.93059
N         53.46013       77.46876       32.37360
C         52.57433       78.25188       31.52710
C         51.34031       77.43632       31.11900
O         50.25489       77.84389       31.50722
C         53.38442       78.90580       30.37847
C         52.54153       79.80275       29.51990
O         51.90445       80.85641       30.06579
O         52.45215       79.59803       28.32007
H         54.37123       77.21068       31.98883
H         52.22734       79.12481       32.12825
H         53.91231       78.16571       29.75708
H         54.18862       79.52773       30.83023
N         51.36857       76.28455       30.37735
C         52.57948       75.71646       29.80935
C         52.36458       74.47305       28.96256
O         51.24406       73.98815       28.89588
H         50.46457       75.82277       30.19520
H         53.29093       75.48151       30.62492
H         52.95695       76.46291       29.12159
N         53.37553       73.86792       28.25587
C         54.78708       74.26962       28.18451
C         55.40090       74.22167       29.57392
O         55.78653       75.25835       30.09654
C         54.99953       75.62242       27.45940
C         54.25402       75.67310       26.15501
O         53.32297       76.62515       25.95119
O         54.47847       74.85136       25.28084
H         53.12454       73.02300       27.71798
H         55.32322       73.54308       27.53700
H         56.08564       75.75831       27.26633
H         54.70327       76.48648       28.07100
N         55.46732       73.06440       30.29048
C         55.21379       71.73870       29.75704
C         53.87803       71.19799       30.16954
O         53.08623       71.89685       30.78694
H         55.76159       73.11254       31.27416
H         56.02861       71.06746       30.10666
H         55.24504       71.71219       28.65232
N         53.57236       69.91664       29.83574
C         52.29967       69.27893       30.13515
C         52.41106       68.35298       31.33542
O         51.38819       67.82419       31.74814
C         51.68368       68.65475       28.85429
C         52.59117       67.73008       28.01755
C         53.00210       66.47305       28.72148
N         52.07972       65.55181       29.07350
O         54.18416       66.26305       28.93962
H         54.31189       69.35094       29.39353
H         51.56668       70.04280       30.47843
H         51.42185       69.49974       28.18070
H         50.73416       68.13716       29.11086
H         53.48880       68.29034       27.68329
H         52.04901       67.43507       27.09363
H         51.08059       65.69896       28.87456
H         52.36939       64.67438       29.51911
N         53.58232       68.22097       32.02926
C         53.66672       67.60061       33.34749
C         54.60951       66.40914       33.38306
O         54.76815       65.85709       34.46394
C         54.07995       68.67050       34.40944
C         53.04858       69.80840       34.48655
C         55.47768       69.26042       34.16301
H         54.43977       68.65730       31.66748
H         52.67296       67.21197       33.66207
H         54.09701       68.17864       35.40764
H         52.04373       69.40057       34.72507
H         53.32709       70.52604       35.28859
H         52.99227       70.36525       33.52679
H         56.24763       68.46124       34.14741
H         55.51772       69.81674       33.20602
H         55.73578       69.96935       34.97879
N         55.23963       65.92370       32.26928
C         56.11670       64.75574       32.32207
C         57.52427       65.02513       31.78391
O         58.34131       64.12097       31.89395
C         55.47729       63.58158       31.54399
C         54.09038       63.22176       32.03266
N         53.86168       62.87012       33.31860
O         53.15812       63.23273       31.24634
H         55.05576       66.35274       31.35300
H         56.24879       64.42660       33.37435
H         56.11930       62.68083       31.64792
H         55.42280       63.84248       30.46293
H         54.62486       62.84487       34.00778
H         52.90778       62.62606       33.62668
N         57.88216       66.18640       31.14908
C         59.19600       66.37384       30.52647
C         59.80444       67.73659       30.83172
O         59.17042       68.74676       30.55791
C         59.06033       66.30974       28.99451
C         58.60443       64.97850       28.46230
C         59.53310       63.96032       28.18506
C         57.25083       64.77138       28.17031
C         59.10732       62.75806       27.60973
C         56.82421       63.56778       27.60599
C         57.74977       62.56082       27.31377
O         57.32560       61.41720       26.73959
H         57.17935       66.92403       31.00162
H         59.90638       65.57025       30.82210
H         60.04152       66.53084       28.52180
H         58.37010       67.10724       28.64216
H         60.58704       64.10552       28.39045
H         56.53131       65.54998       28.37314
H         59.83332       61.98712       27.38247
H         55.77502       63.42630       27.38108
H         57.93587       60.70824       26.49173
N         61.10258       67.82725       31.24952
C         61.89651       69.05931       31.22915
C         61.44124       70.15113       32.18346
O         62.05657       71.20946       32.15938
C         62.02584       69.61202       29.78610
C         62.67223       68.59168       28.83656
C         62.90653       69.19231       27.48052
O         62.37780       68.70950       26.49219
O         63.72145       70.25689       27.34662
H         61.60937       66.95712       31.47224
H         62.93164       68.80457       31.55074
H         62.68136       70.51050       29.81226
H         61.03828       69.92700       29.38650
H         62.01971       67.69974       28.74499
H         63.65296       68.26538       29.24390
N         60.45476       69.96611       33.10451
C         60.11145       70.98638       34.08873
C         60.63328       70.60518       35.46921
O         60.44336       71.38460       36.39385
C         58.58544       71.19993       34.12978
C         57.92264       71.64618       32.80938
C         58.39552       72.99348       32.35289
O         59.53030       73.14450       31.93117
O         57.60898       74.06778       32.54378
H         59.98821       69.05079       33.17868
H         60.60116       71.95499       33.85230
H         58.34981       71.96501       34.90404
H         58.11739       70.24511       34.44594
H         56.83772       71.73222       33.02727
H         58.05143       70.89896       31.99960
N         61.32774       69.45052       35.69209
C         61.85353       69.11182       36.99607
H         62.57737       69.88756       37.32560
H         61.02590       69.03576       37.73201
H         62.38055       68.13482       36.94852
H         61.50891       68.78536       34.92763
Ca        58.60219       76.04569       32.31256
O         59.18435       75.25805       29.20761
H         59.05923       74.30358       28.97568
H         59.57936       75.66232       28.39455
O         61.55500       76.04472       31.44876
H         61.36612       75.09870       31.22672
H         61.53330       76.07597       32.43840
O         57.27515       78.08966       29.53458
H         57.00961       78.00743       28.58416
H         58.00737       78.75635       29.53051

Ca 1.0



