%chk=apoCaM-CA-Ng.loop3.water4.frame135.chk
%nprocshared=20
%mem=10GB
%nosave
#b3lyp/svp scf=(tight,noincore,xqc) Test 
#IOP(5/87=12) Density=Current Pop=(MK,readradii) iop(6/33=2) iop(6/42=6)

apoCaM-CA-Ng.loop3.water4.frame135 

   0  1 
C         76.41633       54.30346       -3.04718
C         77.83010       53.88646       -3.33027
O         78.52081       53.48405       -2.40682
H         75.84422       53.44280       -2.64394
H         76.41781       55.12492       -2.29958
H         75.90955       54.66936       -3.96541
N         78.33909       53.98650       -4.59169
C         79.71569       53.66461       -4.95578
C         80.66416       54.53176       -4.14042
O         81.58078       54.02690       -3.50398
C         79.96480       52.14145       -4.81812
C         81.28147       51.66352       -5.37523
O         82.07048       52.43443       -5.89907
O         81.58380       50.35305       -5.30910
H         77.73149       54.35373       -5.34006
H         79.83969       53.93371       -6.02900
H         79.16464       51.60410       -5.37147
H         79.90437       51.84422       -3.75080
N         80.42165       55.86774       -4.05816
C         81.16992       56.78238       -3.21291
C         80.33395       57.06212       -1.98471
O         79.19067       57.48163       -2.12157
C         81.47548       58.08470       -3.98212
C         82.33012       57.87007       -5.24886
C         83.74372       57.31554       -4.99175
C         84.62819       58.28354       -4.18773
N         85.95831       57.71690       -3.97075
H         79.58960       56.24356       -4.54122
H         82.12503       56.32863       -2.87370
H         81.97241       58.81155       -3.30701
H         80.51256       58.54476       -4.29649
H         82.42364       58.84047       -5.78334
H         81.79302       57.17017       -5.92487
H         84.22749       57.14340       -5.97787
H         83.68270       56.33401       -4.47871
H         84.17421       58.49814       -3.19799
H         84.72232       59.24161       -4.74685
H         86.41736       57.50376       -4.88579
H         86.54381       58.40925       -3.44984
H         85.88243       56.84323       -3.40042
N         80.84121       56.83920       -0.73945
C         80.04898       57.00983        0.47045
C         80.95352       57.08390        1.69011
O         81.82592       56.24006        1.85023
C         79.03875       55.85459        0.61832
C         78.06413       56.16070        1.71900
O         77.31002       57.11479        1.62012
O         78.02565       55.40337        2.82383
H         81.82899       56.55071       -0.65458
H         79.48910       57.96901        0.39058
H         79.58487       54.90641        0.82319
H         78.45135       55.71078       -0.31297
N         80.78668       58.08125        2.60040
C         81.65721       58.29361        3.74284
C         81.81363       57.09671        4.65824
O         82.89907       56.94909        5.20133
H         80.01459       58.75177        2.46608
H         81.28408       59.15644        4.33589
H         82.66555       58.57385        3.36720
N         80.79818       56.21567        4.90299
C         80.96251       55.06053        5.78896
C         80.75235       53.71913        5.07584
O         80.82397       52.69551        5.74336
C         80.11627       55.21404        7.07164
C         78.60801       55.14037        6.88194
N         77.91544       55.01032        8.15421
O         78.09947       56.23405        6.18129
H         79.88733       56.36654        4.44800
H         82.00528       55.01871        6.16976
H         80.37502       56.16311        7.58895
H         80.40309       54.37851        7.74726
H         78.20055       54.10460        8.59231
H         76.90020       54.91508        7.93408
N         80.58575       53.62750        3.72229
C         80.52950       52.35796        3.00888
C         79.26781       51.59246        3.30362
O         79.34240       50.48306        3.81190
H         80.57872       54.48069        3.15119
H         81.42870       51.75329        3.26184
H         80.55032       52.54809        1.91374
N         78.06213       52.13584        2.98555
C         76.78310       51.47946        3.22131
C         75.99509       52.26678        4.28012
O         76.86474       52.74208        5.24765
C         76.00461       51.43943        1.88918
C         76.72106       50.56995        0.89206
C         76.70866       49.17658        1.05331
C         77.41540       51.13350       -0.19060
C         77.38152       48.35541        0.14656
C         78.10218       50.31021       -1.08896
C         78.08652       48.91720       -0.92255
O         78.74597       48.11091       -1.77826
H         78.04805       53.06987        2.56015
H         76.93969       50.45334        3.62103
H         75.92949       52.48433        1.51010
H         74.96554       51.06519        2.00560
H         76.16985       48.72853        1.87911
H         77.44250       52.20740       -0.32552
H         77.35850       47.28156        0.28001
H         78.64881       50.75332       -1.91041
H         79.25843       48.45861       -2.52185
N         75.00098       51.41905        4.93935
C         74.11466       52.19112        5.83738
C         74.70474       52.14686        7.24353
O         75.05485       53.19724        7.76006
C         72.64879       51.66589        5.72110
C         72.03767       51.97447        4.31551
C         71.72473       52.20180        6.82372
C         71.80047       53.46338        4.02132
H         74.50005       50.82630        4.24544
H         74.10143       53.26500        5.55308
H         72.67920       50.56002        5.84622
H         71.06113       51.45425        4.22710
H         72.67701       51.57480        3.50412
H         72.08072       51.87363        7.81459
H         71.68195       53.30885        6.82358
H         70.70190       51.78858        6.68808
H         72.73449       54.05365        4.07103
H         71.39121       53.57472        2.99600
H         71.06333       53.89629        4.72657
N         74.88409       50.97185        7.90794
C         75.53293       50.88597        9.21876
C         74.79975       51.66637       10.29708
O         75.46773       52.32659       11.08130
C         75.69318       49.42491        9.66993
O         76.54481       48.73044        8.79659
H         74.57926       50.10339        7.44382
H         76.56721       51.29494        9.14381
H         74.70830       48.91388        9.76622
H         76.16582       49.40083       10.67713
H         75.97971       48.33875        8.08280
N         73.43730       51.63708       10.40724
C         72.68766       52.28183       11.48662
C         72.95564       53.78094       11.64182
O         72.54953       54.32471       12.66105
C         72.98314       51.54661       12.80457
H         72.90007       51.09712        9.71621
H         71.59801       52.14746       11.30677
H         74.04755       51.64301       13.10064
H         72.35144       51.95210       13.62467
H         72.73612       50.46904       12.69419
N         73.62570       54.51911       10.70566
C         74.05035       55.89502       10.94885
C         73.38101       56.89330       10.03049
O         72.64802       56.51711        9.12657
C         75.56978       55.97392       10.76880
H         73.88455       54.09080        9.80743
H         73.80544       56.19854       11.98926
H         75.95927       56.99001       10.98528
H         76.07892       55.25218       11.44064
H         75.82421       55.72450        9.72106
N         73.59823       58.22231       10.25174
C         73.06792       59.31586        9.45153
C         71.55061       59.27876        9.42219
O         70.96098       59.27565        8.34953
C         73.69797       59.32801        8.04071
C         75.23401       59.34695        8.09962
C         75.82393       59.43407        6.72432
O         75.60034       58.56037        5.90244
O         76.61278       60.47432        6.39415
H         74.18316       58.49191       11.05799
H         73.36576       60.26829        9.94654
H         73.34515       60.23803        7.50552
H         73.36777       58.43615        7.46832
H         75.60850       58.41920        8.58434
H         75.57411       60.21989        8.69775
N         70.85319       59.23785       10.59147
C         69.40604       59.19594       10.65649
H         68.93371       59.24503        9.65267
H         69.08752       58.25231       11.14667
H         69.04072       60.05546       11.25572
H         71.36984       59.21954       11.48380
Ca        76.57794       54.97506        5.15693
O         78.04996       58.41097        4.26066
H         78.39945       58.72062        5.13352
H         77.87192       59.24222        3.75422
O         74.90215       58.33900        2.94997
H         74.93041       59.31313        3.12464
H         74.42949       58.25536        2.08409
O         73.66294       56.12581        5.94116
H         74.29469       56.21765        6.69827
H         72.80834       55.85721        6.36249
O         74.52393       55.16908        2.35591
H         74.17704       54.26941        2.13169
H         74.49078       55.66538        1.50007

Ca 1.0



