%chk=apoCaM-CA-Ng.loop1.water2.frame945.chk
%nprocshared=20
%mem=10GB
%nosave
#b3lyp/svp scf=(tight,noincore,xqc) Test 
#IOP(5/87=12) Density=Current Pop=(MK,readradii) iop(6/33=2) iop(6/42=6)

apoCaM-CA-Ng.loop1.water2.frame945 

   0  1 
C         97.20821       89.38737       71.32881
C         96.21439       88.70754       72.22543
O         96.01776       87.51057       72.07069
H         98.20050       88.90236       71.45031
H         96.88886       89.29136       70.26994
H         97.31146       90.46434       71.57571
N         95.55766       89.40531       73.19861
C         94.62139       88.78481       74.13033
C         93.23738       89.40762       73.98752
O         93.11009       90.61984       74.10051
C         95.14318       88.87935       75.57850
C         95.05520       90.25924       76.16335
O         94.25026       90.46642       77.05759
O         95.79840       91.28927       75.72254
H         95.74379       90.41499       73.29229
H         94.54523       87.69606       73.91874
H         96.17897       88.48417       75.65248
H         94.48814       88.22091       76.19125
N         92.15264       88.63075       73.71125
C         90.82440       89.18740       73.47022
C         90.25434       89.84029       74.73029
O         89.95956       89.14408       75.69159
C         89.90750       88.07595       72.92068
C         88.56383       88.57561       72.37663
C         87.80943       87.40139       71.73246
C         86.48777       87.84301       71.09821
N         85.80259       86.70691       70.48212
H         92.29546       87.61431       73.60568
H         90.93585       89.94482       72.66212
H         89.74414       87.29704       73.69861
H         90.44651       87.60314       72.06899
H         88.75420       89.35060       71.60165
H         87.95728       89.02463       73.19292
H         87.60818       86.62584       72.50360
H         88.44499       86.95356       70.93604
H         86.68771       88.61569       70.32214
H         85.83296       88.27939       71.87864
H         86.40056       86.28623       69.73389
H         85.58484       85.98420       71.20634
H         84.90782       87.03718       70.05407
N         90.12289       91.19702       74.79080
C         89.60158       91.94689       75.94313
C         88.55935       92.96372       75.46743
O         88.44678       93.14273       74.26153
C         90.79713       92.64657       76.66270
C         91.56938       93.64567       75.81719
O         91.22802       93.89238       74.67270
O         92.66727       94.27159       76.29104
H         90.45879       91.73011       73.97639
H         89.12108       91.24687       76.66027
H         91.49770       91.85186       76.99778
H         90.45413       93.17356       77.56875
N         87.77168       93.72294       76.28571
C         87.59162       93.62914       77.72799
C         86.71430       92.46178       78.12425
O         86.48439       91.56881       77.32405
H         87.19755       94.43926       75.82033
H         86.99743       94.52580       78.01800
H         88.52711       93.69176       78.30808
N         86.12604       92.45746       79.35600
C         85.11176       91.48869       79.77422
C         83.85462       91.66957       78.92876
O         83.32064       92.77107       78.89652
C         84.77073       91.71193       81.26890
C         83.79761       90.71576       81.85151
O         83.44520       90.82370       83.14652
O         83.33125       89.80912       81.17953
H         86.37806       93.21592       80.00978
H         85.52435       90.46070       79.67237
H         84.35376       92.73406       81.40678
H         85.70915       91.63956       81.85964
N         83.31609       90.63002       78.22407
C         82.12409       90.77391       77.39421
C         82.35241       91.61868       76.15084
O         81.39929       91.85613       75.42402
H         83.74656       89.69632       78.29788
H         81.30685       91.21157       78.00855
H         81.79148       89.77142       77.04866
N         83.59255       92.08285       75.83300
C         83.91863       92.89490       74.67176
C         84.45556       94.23415       75.16046
O         84.56246       94.43858       76.36287
C         84.97544       92.14085       73.81958
C         84.49670       90.74831       73.41092
O         85.27364       92.85910       72.65041
H         84.37715       91.84763       76.43782
H         83.01169       93.08324       74.05607
H         85.89207       92.01842       74.44536
H         86.24437       92.74983       72.47354
H         85.29298       90.26090       72.81565
H         84.29802       90.11619       74.30177
H         83.57502       90.81690       72.79546
N         84.80914       95.20819       74.27904
C         85.29744       96.51444       74.70627
C         84.15240       97.22090       75.41354
O         84.31063       97.61839       76.55976
C         85.89428       97.30207       73.49842
C         87.05795       96.47260       72.86493
C         86.41101       98.67657       73.96753
C         87.69801       97.10551       71.62959
H         84.69279       95.03135       73.27393
H         86.14031       96.38587       75.42016
H         85.10042       97.46055       72.73572
H         86.68537       95.48245       72.53415
H         87.85169       96.29030       73.62280
H         85.59411       99.27108       74.42500
H         87.22416       98.55158       74.71567
H         86.79854       99.27088       73.11612
H         88.20892       98.05655       71.87781
H         88.46642       96.41179       71.22426
H         86.93257       97.28074       70.84502
N         82.93450       97.30889       74.80800
C         81.73163       97.82599       75.45027
C         81.15253       98.93979       74.60936
O         80.99568       98.75949       73.40852
C         80.67361       96.70188       75.60296
C         81.17016       95.53360       76.46396
O         79.48593       97.21716       76.15551
H         82.83518       96.92493       73.85498
H         81.95013       98.20577       76.47389
H         80.42933       96.29653       74.59669
H         79.69892       97.56545       77.06163
H         81.44057       95.88144       77.48413
H         80.37501       94.76297       76.54851
H         82.05196       95.06076       75.99827
N         80.74179      100.09787       75.19467
C         80.15140      101.20220       74.45152
C         80.91938      102.46783       74.76103
O         81.48106      103.04418       73.83986
C         78.63687      101.30467       74.74507
C         77.97772      102.40419       73.90832
O         78.38224      101.54297       76.10472
H         80.81618      100.18206       76.22022
H         80.23266      101.01146       73.35684
H         78.15795      100.34450       74.43503
H         78.37781      100.65947       76.55792
H         76.88298      102.41193       74.09144
H         78.38928      103.40129       74.17185
H         78.15042      102.21887       72.82586
N         81.02910      102.93245       76.04229
C         81.85813      104.07686       76.38965
C         83.01271      103.62129       77.25477
O         83.02953      102.48639       77.71326
C         81.06290      105.15379       77.15743
C         79.81246      105.65506       76.41932
C         79.11510      106.80231       77.17877
C         79.91359      108.12078       77.13162
N         79.22649      109.18249       77.86599
H         80.56752      102.42525       76.81114
H         82.28543      104.53348       75.47075
H         81.75221      105.99948       77.34426
H         80.74175      104.74823       78.14364
H         79.10216      104.80294       76.34306
H         80.06360      105.99302       75.39127
H         78.93079      106.49509       78.23221
H         78.13012      106.98954       76.69915
H         80.03293      108.42909       76.06876
H         80.92438      107.99641       77.57001
H         79.77147      110.07025       77.77019
H         78.26604      109.33192       77.48093
H         79.16817      108.93254       78.88002
N         84.02794      104.48547       77.51708
C         85.13857      104.17408       78.40305
C         85.85991      102.88726       78.00121
O         85.97032      102.02295       78.85925
C         86.08667      105.38841       78.51685
C         87.05869      105.25408       79.69635
C         87.86690      106.50863       79.86360
O         88.62248      106.87912       78.97962
O         87.75472      107.23598       80.99218
H         83.99482      105.41864       77.07739
H         84.70376      104.02377       79.41779
H         85.46354      106.28905       78.71682
H         86.63973      105.55661       77.56850
H         87.73788      104.38793       79.55171
H         86.46983      105.09119       80.62634
N         86.34892      102.61779       76.75289
C         86.25016      103.47013       75.58568
H         85.75708      104.43551       75.77957
H         87.26658      103.67332       75.19166
H         85.66646      102.93923       74.80251
H         86.80257      101.70260       76.60315
Ca        94.62318       93.17827       76.04375
O         94.29910       92.81900       71.65515
H         94.50884       93.07210       70.72096
H         93.68825       92.04426       71.57119
O         93.34525       95.85659       73.28681
H         93.87896       95.63424       72.48302
H         92.80443       96.64078       73.01637

Ca 1.0



