%chk=apoCaM-CA-Ng.loop3.water5.frame386.chk
%nprocshared=20
%mem=10GB
%nosave
#b3lyp/svp scf=(tight,noincore,xqc) Test 
#IOP(5/87=12) Density=Current Pop=(MK,readradii) iop(6/33=2) iop(6/42=6)

apoCaM-CA-Ng.loop3.water5.frame386 

   0  1 
C         27.74942      119.76955       11.64756
C         28.56265      120.50494       10.62285
O         29.74984      120.68643       10.84119
H         26.68481      119.69021       11.34229
H         28.15811      118.75069       11.80152
H         27.79135      120.32745       12.60842
N         27.97715      120.98785        9.48884
C         28.64638      121.83931        8.50657
C         29.04354      123.14614        9.17912
O         30.19558      123.55551        9.13188
C         29.82268      121.11723        7.80562
C         29.40588      119.87386        7.06126
O         30.24820      119.22372        6.46365
O         28.12034      119.46918        7.03312
H         26.97494      120.79760        9.33460
H         27.90416      122.10644        7.72076
H         30.60085      120.84049        8.54422
H         30.28304      121.81238        7.07071
N         28.08755      123.83141        9.86973
C         28.29889      125.08516       10.59946
C         29.38642      125.02216       11.67983
O         29.74381      126.06830       12.20339
C         26.95684      125.53894       11.24295
C         26.42218      124.51635       12.28285
C         25.04058      124.85774       12.85880
C         25.03857      126.12063       13.72796
N         23.72764      126.31702       14.34803
H         27.13906      123.43040        9.84810
H         28.62192      125.84414        9.85345
H         26.20258      125.65629       10.43381
H         27.09650      126.52959       11.72411
H         27.14678      124.39889       13.11649
H         26.30537      123.52161       11.80881
H         24.73108      124.00166       13.49864
H         24.29875      124.95463       12.03538
H         25.29044      127.00960       13.11151
H         25.80320      126.01366       14.52905
H         23.75389      127.17691       14.94176
H         22.99236      126.43129       13.61311
H         23.49149      125.49830       14.95573
N         29.92760      123.84239       12.09182
C         30.95505      123.72220       13.13091
C         32.26856      124.35118       12.65893
O         32.45008      124.51494       11.45929
C         31.09179      122.21861       13.44863
C         31.90903      121.75643       14.65221
O         31.48671      122.27160       15.87686
O         33.27580      121.96304       14.54527
H         29.54978      122.98072       11.68519
H         30.58164      124.24752       14.03707
H         31.46185      121.71013       12.53669
H         30.07018      121.82722       13.64698
N         33.19196      124.81848       13.55086
C         34.38333      125.55463       13.13323
C         35.41641      124.72367       12.38833
O         36.28856      125.31219       11.76613
H         32.99784      124.73381       14.55830
H         34.88416      126.01124       14.01482
H         34.05381      126.39201       12.47930
N         35.43158      123.36428       12.46230
C         36.37823      122.50509       11.75549
C         35.66789      121.34333       11.05374
O         36.33444      120.41451       10.62179
C         37.51734      122.05415       12.70174
C         37.15205      121.25438       13.92417
N         38.13557      120.87495       14.77385
O         35.99370      120.95445       14.16370
H         34.76199      122.90967       13.08364
H         36.90812      123.07827       10.96390
H         38.03786      122.97074       13.05732
H         38.25034      121.46068       12.11334
H         39.11935      121.11523       14.58054
H         37.92274      120.34761       15.62969
N         34.32147      121.36761       10.83620
C         33.57243      120.32394       10.15355
C         33.42211      119.06844       10.98525
O         33.60623      117.97241       10.47866
H         33.77919      122.19453       11.12245
H         33.98704      120.12090        9.14259
H         32.53823      120.70717       10.01338
N         33.02061      119.18365       12.27704
C         32.64974      118.09663       13.17288
C         33.63822      118.04260       14.32274
O         33.93658      119.06683       14.91964
C         31.21702      118.37818       13.67246
C         30.78796      117.51754       14.83401
C         30.62117      116.13081       14.70318
C         30.55269      118.12449       16.08037
C         30.22273      115.36610       15.80735
C         30.16425      117.36110       17.17908
C         29.99610      115.97760       17.04735
O         29.61783      115.23051       18.10357
H         32.95368      120.13276       12.66079
H         32.64819      117.11246       12.65467
H         30.49558      118.28571       12.83230
H         31.17532      119.42718       14.00371
H         30.79402      115.64538       13.75116
H         30.67814      119.19315       16.20640
H         30.09125      114.29723       15.70077
H         29.99509      117.84894       18.13097
H         29.45393      115.62165       18.97421
N         34.16804      116.84647       14.70124
C         35.21893      116.72014       15.70368
C         36.50791      117.18663       15.06889
O         37.18680      118.01969       15.64892
C         35.31126      115.26186       16.24430
C         33.97306      114.91528       16.95855
C         36.50129      115.12032       17.21969
C         33.89904      113.49889       17.52635
H         33.84154      115.99111       14.22578
H         34.98741      117.35548       16.59011
H         35.47668      114.56109       15.39587
H         33.13552      115.01886       16.23815
H         33.79520      115.63254       17.79084
H         37.45829      115.36363       16.71734
H         36.37999      115.79654       18.09278
H         36.60519      114.07729       17.57899
H         34.05462      112.75104       16.72181
H         34.64484      113.34580       18.33224
H         32.89442      113.34150       17.97388
N         36.86879      116.73808       13.83302
C         38.03999      117.24637       13.13543
C         39.32871      116.73580       13.74914
O         40.35358      117.37335       13.55717
C         38.00014      116.85827       11.63917
O         36.81032      117.25532       10.99730
H         36.24162      116.08186       13.34188
H         38.01640      118.35930       13.18609
H         38.07531      115.75309       11.55428
H         38.86434      117.31461       11.10902
H         36.39741      118.00352       11.50030
N         39.36316      115.55347       14.43843
C         40.57986      114.95065       14.97549
C         41.23927      115.81590       16.04146
O         42.43164      115.65557       16.27291
C         41.54842      114.60327       13.82982
H         38.49127      115.01931       14.56161
H         40.31228      113.98385       15.45661
H         42.42439      114.04320       14.21996
H         41.03490      113.96031       13.08327
H         41.92469      115.51042       13.31485
N         40.52310      116.73032       16.75809
C         41.11978      117.63443       17.73209
C         40.55553      117.39679       19.11724
O         39.34437      117.43917       19.29052
C         40.85785      119.07707       17.30307
H         39.50816      116.81519       16.59512
H         42.22426      117.50759       17.76761
H         41.32860      119.77786       18.02579
H         41.29971      119.25526       16.29970
H         39.76715      119.28366       17.25685
N         41.40244      117.17651       20.16475
C         40.99167      116.98391       21.55085
C         40.17682      115.71226       21.68384
O         39.05315      115.74480       22.16812
C         40.26023      118.22919       22.11503
C         41.09811      119.50966       21.98005
C         40.38359      120.68720       22.58001
O         39.29791      121.03760       22.14467
O         40.94495      121.37089       23.59545
H         42.41785      117.16009       19.98117
H         41.91088      116.84172       22.16329
H         40.04686      118.05392       23.19349
H         39.28982      118.37665       21.59569
H         41.29284      119.72557       20.90751
H         42.07267      119.37134       22.49615
N         40.70601      114.53223       21.26156
C         39.98329      113.28423       21.36250
H         39.03233      113.34952       20.79231
H         40.59566      112.45899       20.94120
H         39.76463      113.05877       22.42784
H         41.65138      114.51929       20.84941
Ca        33.57487      122.09875       16.78203
O         36.28273      123.57239       16.25983
H         37.13909      123.25209       16.64012
H         36.42611      124.53908       16.10118
O         36.15700      120.07669       17.73568
H         36.95025      120.63737       17.92813
H         36.15103      119.40007       18.45843
O         34.46840      122.44338       19.53350
H         35.13442      123.17503       19.49996
H         34.97940      121.65378       19.84218
O         33.20108      124.82496       17.42388
H         32.35441      124.58333       16.97042
H         33.65425      125.43955       16.79452
O         32.56166      119.53949       18.28483
H         31.74849      120.05773       18.51084
H         33.22679      119.81239       18.96498

Ca 1.0



