%chk=apoCaM-CA-Ng.loop2.water4.frame1417.chk
%nprocshared=20
%mem=10GB
%nosave
#b3lyp/svp scf=(tight,noincore,xqc) Test 
#IOP(5/87=12) Density=Current Pop=(MK,readradii) iop(6/33=2) iop(6/42=6)

apoCaM-CA-Ng.loop2.water4.frame1417 

   -2  1 
C         75.57834       94.49516       -0.29768
C         74.54517       93.40459       -0.26203
O         74.91874       92.24791       -0.39174
H         76.59234       94.06711       -0.44785
H         75.36318       95.18464       -1.14113
H         75.57366       95.05507        0.66045
N         73.21414       93.65528       -0.10497
C         72.62727       94.98475        0.06470
C         71.72969       95.37794       -1.10466
O         71.19080       96.47595       -1.07346
C         71.87579       95.05884        1.41887
C         70.70621       94.11744        1.58638
O         70.36629       93.35429        0.69822
O         70.02159       94.12058        2.74578
H         72.58255       92.84013       -0.11264
H         73.41834       95.75936        0.10490
H         71.49981       96.09437        1.56681
H         72.60293       94.84339        2.23107
N         71.52444       94.55169       -2.17306
C         70.63709       94.88498       -3.28541
C         69.23125       95.11493       -2.77242
O         68.62696       96.13485       -3.07076
C         70.62430       93.73647       -4.30542
H         71.99392       93.63517       -2.19661
H         71.00611       95.79506       -3.80832
H         71.64979       93.56440       -4.69647
H         70.26267       92.79313       -3.84090
H         69.96149       93.98851       -5.16045
N         68.68625       94.19924       -1.93329
C         67.37314       94.28324       -1.32547
C         67.56627       94.62262        0.18432
O         66.63368       93.98411        0.98776
C         66.56509       92.99780       -1.69772
C         67.32278       91.67101       -1.77340
O         67.90247       91.08583       -0.70478
O         67.40311       91.10574       -2.85281
H         69.26956       93.39413       -1.66159
H         66.77002       95.12711       -1.73503
H         66.19968       93.17574       -2.73502
H         65.65418       92.91319       -1.06934
N         67.48961       96.08442        0.38119
C         67.59609       96.57861        1.76870
C         66.53070       96.01800        2.69047
O         66.87306       95.49258        3.73927
H         68.24597       96.53934       -0.18167
H         67.45579       97.68091        1.73878
H         68.61252       96.38293        2.17447
N         65.21768       96.04643        2.32291
C         64.13269       95.45355        3.10127
C         63.57526       94.25550        2.34638
O         63.28215       94.37863        1.16429
C         63.03733       96.50535        3.34276
C         61.90315       95.93269        4.16005
N         60.65188       95.85738        3.64998
O         62.12040       95.52374        5.29128
H         64.97890       96.46286        1.40905
H         64.49682       95.11062        4.09544
H         62.65953       96.87233        2.36341
H         63.46676       97.37207        3.89073
H         60.44799       96.18899        2.69610
H         59.88362       95.45648        4.20817
N         63.38712       93.05793        2.97870
C         62.94312       91.85630        2.28031
C         64.05710       91.31765        1.40906
O         65.12717       91.89189        1.43689
H         63.56317       92.99010        3.99232
H         62.02845       92.08481        1.69193
H         62.70231       91.06630        3.02325
N         63.94954       90.22063        0.61174
C         62.74759       89.42549        0.41092
C         62.95041       87.97483        0.84294
O         62.00056       87.39378        1.34922
C         62.32831       89.48719       -1.07706
C         62.00464       90.92323       -1.51096
O         63.35352       88.97364       -1.88873
H         64.78825       89.96311        0.06889
H         61.89550       89.82951        0.99925
H         61.40669       88.86880       -1.19370
H         62.93431       88.70184       -2.74680
H         61.18722       91.34060       -0.88556
H         62.89851       91.57691       -1.42028
H         61.67363       90.93122       -2.57112
N         64.13978       87.31909        0.66646
C         64.34927       85.90515        0.97774
C         65.33640       85.77726        2.14326
O         66.39713       86.38025        2.05972
C         64.88792       85.16893       -0.28540
C         63.95484       85.32429       -1.51638
C         65.17301       83.68071       -0.00379
C         62.54765       84.74051       -1.34883
H         64.94571       87.82761        0.27813
H         63.38532       85.45010        1.24591
H         65.85988       85.63499       -0.56488
H         64.43367       84.83129       -2.39025
H         63.85513       86.40003       -1.76570
H         64.25651       83.14099        0.30822
H         65.58569       83.19216       -0.91152
H         65.92728       83.57156        0.80218
H         62.58512       83.64950       -1.15567
H         61.99764       85.24252       -0.52799
H         61.97398       84.90009       -2.28572
N         65.10146       85.02634        3.26837
C         63.94209       84.15814        3.46622
C         64.28534       82.84865        4.16643
O         65.27023       82.76514        4.88514
C         62.82839       84.91365        4.22137
C         63.25613       85.38272        5.59003
O         63.27155       86.57513        5.85086
O         63.60106       84.49384        6.54166
H         65.80979       85.05735        4.01811
H         63.54847       83.83750        2.48718
H         61.93420       84.26295        4.33124
H         62.53106       85.79659        3.61522
N         63.43145       81.79338        4.02713
C         63.48883       80.56457        4.80881
C         63.67324       79.34296        3.91132
O         62.91095       79.21662        2.96404
C         62.12124       80.42168        5.51620
C         62.06910       79.20519        6.40249
C         61.31812       78.07891        6.02366
C         62.78215       79.18447        7.61068
C         61.29445       76.94416        6.83855
C         62.74672       78.05188        8.42807
C         62.00679       76.93117        8.04068
H         62.64116       81.89406        3.37112
H         64.28048       80.62161        5.58007
H         61.33474       80.34880        4.73040
H         61.88368       81.32304        6.12175
H         60.76758       78.07106        5.09066
H         63.36219       80.04621        7.91713
H         60.72589       76.07422        6.53631
H         63.29613       78.04273        9.35989
H         61.98588       76.05261        8.67155
N         64.56261       78.33258        4.19273
C         65.47432       78.26305        5.32773
C         66.59626       79.27053        5.25854
O         66.84058       79.96776        6.23115
C         66.04738       76.83810        5.26043
C         64.90206       76.07865        4.62638
C         64.50732       77.04877        3.51864
H         64.89416       78.35272        6.26812
H         66.89011       76.78583        4.53357
H         66.40917       76.44584        6.23541
H         65.15899       75.05611        4.27772
H         64.06868       76.01394        5.36442
H         65.27059       77.03320        2.70889
H         63.50607       76.79061        3.11170
N         67.32691       79.38739        4.11480
C         68.47940       80.26634        3.99222
C         69.65063       79.64162        4.73958
O         70.02125       78.52694        4.39794
C         68.85728       80.45460        2.50683
C         67.72931       81.14751        1.72222
C         68.11405       81.34309        0.28513
O         67.44835       80.83571       -0.60347
O         69.18763       82.09160       -0.03221
H         67.04816       78.82224        3.29875
H         68.21611       81.27339        4.37774
H         69.08431       79.46847        2.04253
H         69.77008       81.08841        2.44952
H         67.51651       82.14077        2.17267
H         66.80002       80.53948        1.76966
N         70.30430       80.25848        5.76349
C         69.97240       81.57563        6.25562
H         68.93318       81.58899        6.64329
H         70.65790       81.84782        7.08620
H         70.08827       82.32476        5.44443
H         71.08908       79.76273        6.21527
Ca        67.76232       92.08197        1.25490
O         70.12223       89.73636        0.95483
H         69.59767       89.02990        0.50045
H         70.74176       90.07138        0.25894
O         66.98462       92.47883        4.22610
H         66.08657       92.77971        4.51363
H         67.61368       93.03179        4.75436
O         69.77360       91.05885        3.98192
H         70.38184       91.52185        4.61124
H         69.96494       90.09634        4.11365
O         67.19043       89.37234        2.92142
H         67.61404       88.88839        2.16887
H         67.47627       88.87442        3.72817

Ca 1.0



