%chk=apoCaM-CA-Ng.loop3.water6.frame1158.chk
%nprocshared=20
%mem=10GB
%nosave
#b3lyp/svp scf=(tight,noincore,xqc) Test 
#IOP(5/87=12) Density=Current Pop=(MK,readradii) iop(6/33=2) iop(6/42=6)

apoCaM-CA-Ng.loop3.water6.frame1158 

   0  1 
C         80.66274       63.48038       69.30139
C         80.35074       62.43812       68.27133
O         81.13748       62.26114       67.35180
H         81.62748       63.98274       69.07176
H         79.85696       64.24327       69.31591
H         80.73797       63.00395       70.30106
N         79.20727       61.70066       68.37030
C         78.84097       60.66898       67.40668
C         77.53428       61.01844       66.71402
O         76.62020       60.20589       66.68410
C         78.83917       59.27323       68.07826
C         77.84708       59.06997       69.19934
O         77.80868       57.88066       69.82896
O         77.07541       59.95119       69.54348
H         78.57666       61.88446       69.16439
H         79.60393       60.61595       66.59941
H         79.85516       59.08697       68.48699
H         78.63947       58.50508       67.29966
N         77.41104       62.21858       66.07652
C         76.26941       62.60259       65.25173
C         76.15883       61.63514       64.08763
O         75.11738       61.02431       63.88578
C         74.95272       62.70939       66.05788
C         75.02614       63.74159       67.19004
C         73.66277       63.86117       67.88629
C         73.69471       64.89366       69.01925
N         72.38036       65.01115       69.65173
H         78.19910       62.88230       66.12368
H         76.47729       63.60713       64.81931
H         74.66946       61.72272       66.48148
H         74.14773       63.02146       65.35538
H         75.30691       64.73136       66.76761
H         75.79852       63.43288       67.92801
H         73.37120       62.87190       68.30296
H         72.89897       64.17128       67.13903
H         73.99291       65.88505       68.61125
H         74.44437       64.58550       69.78147
H         72.08962       64.09060       70.05451
H         72.43097       65.71681       70.42147
H         71.67105       65.32744       68.95068
N         77.24889       61.42924       63.29727
C         77.28495       60.47437       62.19751
C         78.25173       59.34501       62.51821
O         78.87136       59.35337       63.57426
C         77.62031       61.18435       60.86511
C         79.00132       61.78809       60.80905
O         79.80864       61.38198       59.98864
O         79.34473       62.80349       61.62352
H         78.10969       61.94527       63.52247
H         76.28510       60.00508       62.06837
H         76.87027       61.98156       60.67401
H         77.52472       60.44635       60.03999
N         78.40208       58.30819       61.64972
C         79.24804       57.16100       61.92145
C         78.67591       56.35928       63.07531
O         77.50528       56.01854       62.97737
H         77.88055       58.31491       60.76080
H         80.29109       57.49828       62.04342
H         79.22701       56.49655       61.03044
N         79.36841       55.95976       64.18444
C         80.78201       56.17134       64.47611
C         80.92544       56.78767       65.86327
O         80.40322       56.20256       66.80288
C         81.47954       54.79254       64.45129
C         82.96377       54.87810       64.71110
N         83.77962       55.54184       63.85948
O         83.43573       54.32714       65.69442
H         78.84589       55.38883       64.86930
H         81.26884       56.79716       63.71733
H         81.32904       54.31767       63.45760
H         81.00852       54.13194       65.21419
H         83.40399       55.99872       63.01598
H         84.79329       55.59233       64.03920
N         81.64585       57.91563       66.12779
C         82.35071       58.70805       65.12694
C         83.26861       59.74516       65.75291
O         83.38393       59.79976       66.97017
H         81.70744       58.19073       67.11951
H         81.61111       59.19012       64.45456
H         83.01124       58.04842       64.52875
N         84.00181       60.58098       64.95953
C         85.01594       61.48522       65.49285
C         84.61964       62.96681       65.25199
O         84.65607       63.27250       63.88909
C         86.38079       61.10572       64.86662
C         87.55357       61.85971       65.44554
C         88.32942       62.70321       64.63262
C         87.89215       61.71360       66.80182
C         89.42086       63.39288       65.16945
C         88.98490       62.40224       67.33569
C         89.75319       63.24548       66.52022
O         90.80867       63.91726       67.02237
H         83.87041       60.53889       63.93746
H         85.09083       61.34402       66.59140
H         86.32093       61.26229       63.76691
H         86.56813       60.02205       65.03237
H         88.08998       62.82995       63.58416
H         87.31370       61.06306       67.44546
H         90.00968       64.04202       64.53381
H         89.23334       62.27894       68.38222
H         91.07055       63.84330       67.95121
N         85.48885       63.87386       66.01723
C         85.03342       65.28048       66.04371
C         85.37598       65.99256       64.74378
O         86.49122       65.84237       64.26472
C         85.67282       66.02290       67.26685
C         87.22508       66.01015       67.22342
C         85.10925       67.45230       67.39035
C         87.87975       66.54536       68.49719
H         85.46809       63.52268       67.00311
H         83.93200       65.31113       66.21286
H         85.35421       65.47173       68.18018
H         87.60081       66.59976       66.36151
H         87.56864       64.96270       67.10619
H         85.45344       67.94096       68.32331
H         85.41890       68.07908       66.52918
H         83.99941       67.42298       67.43029
H         87.64675       67.61745       68.65386
H         87.54340       65.95856       69.37811
H         88.98286       66.44912       68.40982
N         84.47106       66.82645       64.14716
C         84.78054       67.60509       62.94348
C         83.57991       68.39106       62.41952
O         82.54384       68.45004       63.06634
C         85.92977       68.60574       63.21887
O         85.54563       69.50790       64.22152
H         83.54118       66.91199       64.58305
H         85.08193       66.89360       62.14556
H         86.17641       69.16664       62.29126
H         86.85256       68.07721       63.53209
H         86.31539       70.11953       64.35625
N         83.68280       69.03502       61.21889
C         82.64562       69.85654       60.60726
C         82.37366       71.10241       61.43045
O         81.23778       71.34343       61.81699
C         81.38037       69.03619       60.30933
H         84.56198       68.93989       60.68833
H         83.02921       70.21247       59.62490
H         81.63769       68.16851       59.66637
H         80.89854       68.66791       61.23736
H         80.64247       69.66389       59.76527
N         83.39860       71.96506       61.70638
C         83.24656       73.25033       62.38693
C         82.75278       73.14706       63.82637
O         82.53566       74.19040       64.42847
C         82.33908       74.17625       61.55910
H         84.34356       71.72241       61.37084
H         84.24366       73.74343       62.42585
H         82.30541       75.19049       62.01146
H         82.74383       74.27645       60.52932
H         81.30041       73.79343       61.49877
N         82.56219       71.95116       64.45880
C         82.03305       71.85639       65.81488
C         82.94412       72.56473       66.79987
O         82.49415       73.50199       67.44470
C         81.83376       70.37148       66.20624
C         81.27177       70.13493       67.62211
C         79.88598       70.68711       67.82771
O         78.86619       69.85105       68.10064
O         79.67982       71.88929       67.78957
H         82.78054       71.07598       63.96525
H         81.03714       72.34829       65.81699
H         82.81190       69.84660       66.14026
H         81.15026       69.89395       65.46965
H         81.95570       70.56020       68.38715
H         81.23346       69.03538       67.78101
N         84.23671       72.16762       66.96568
C         85.14958       72.79869       67.89796
H         86.02405       73.19802       67.34367
H         84.67793       73.63562       68.45551
H         85.50073       72.04560       68.63379
H         84.59797       71.38000       66.40771
Ca        82.61742       64.18333       63.45350
O         80.68886       61.75540       64.14262
H         81.63744       61.80423       64.41557
H         80.23000       62.39525       64.74123
O         83.55270       61.25986       61.20516
H         84.51142       61.11271       61.40507
H         83.12431       60.38481       61.38252
O         80.31265       65.33863       65.48685
H         80.91771       65.97052       65.02263
H         79.83010       64.87601       64.75591
O         81.41078       65.89796       61.39489
H         81.16994       65.65342       60.46646
H         80.54187       66.04273       61.84723
O         85.07314       64.30778       60.95524
H         84.92119       65.08113       60.35565
H         85.90933       64.52716       61.43821
O         82.40067       63.49192       59.20084
H         83.28805       63.31936       58.79703
H         81.76315       63.01615       58.61144

Ca 1.0



