%chk=apoCaM-CA-Ng.loop2.water3.frame584.chk
%nprocshared=20
%mem=10GB
%nosave
#b3lyp/svp scf=(tight,noincore,xqc) Test 
#IOP(5/87=12) Density=Current Pop=(MK,readradii) iop(6/33=2) iop(6/42=6)

apoCaM-CA-Ng.loop2.water3.frame584 

   -2  1 
C         63.38612        9.82787       89.56646
C         62.17130       10.21645       90.35497
O         62.03988        9.76932       91.48564
H         64.29931       10.14194       90.11381
H         63.40234        8.72524       89.43512
H         63.38998       10.30411       88.56393
N         61.22116       11.03358       89.81707
C         60.01915       11.41195       90.54880
C         60.40554       12.26836       91.74336
O         60.95077       13.34558       91.54819
C         59.03990       12.15788       89.61724
C         57.71172       12.40670       90.27487
O         57.03073       11.46733       90.65590
O         57.25270       13.66369       90.42087
H         61.34603       11.36733       88.84843
H         59.51611       10.47472       90.87740
H         58.85383       11.53661       88.71376
H         59.48950       13.11944       89.28419
N         60.17588       11.83641       93.01592
C         60.59474       12.59544       94.19596
C         62.12515       12.69128       94.26382
O         62.77462       11.94100       93.54779
C         60.05357       11.89010       95.44990
H         59.68930       10.93539       93.14375
H         60.13875       13.60027       94.12038
H         60.47622       10.86481       95.52186
H         60.28645       12.41651       96.38784
H         58.94780       11.81612       95.38608
N         62.81540       13.54631       95.08620
C         62.22946       14.56632       95.96219
C         61.46494       15.62277       95.18129
O         61.57993       15.68532       93.96327
C         63.30631       15.22703       96.87420
C         64.35679       16.02581       96.14260
O         64.90686       15.53471       95.02248
O         64.87096       16.99157       96.68409
H         63.84087       13.44429       95.07758
H         61.52824       14.06725       96.64621
H         63.81462       14.43787       97.46624
H         62.80718       15.90483       97.60046
N         60.64548       16.49243       95.83947
C         59.89185       17.53414       95.16126
C         58.84432       16.99081       94.21201
O         58.62497       15.78880       94.18665
H         60.56649       16.42854       96.86539
H         60.60429       18.15877       94.60457
H         59.37394       18.16902       95.91159
N         58.13378       17.80364       93.37685
C         58.31595       19.24655       93.24495
C         58.78131       19.62155       91.83684
O         58.82596       20.80785       91.54929
C         56.99178       19.97331       93.58012
C         56.59463       19.81116       95.02798
N         55.38524       19.30836       95.36830
O         57.36559       20.17037       95.90588
H         57.42560       17.36282       92.76677
H         59.08447       19.64372       93.93766
H         56.18235       19.62191       92.90292
H         57.12379       21.06454       93.41438
H         54.70783       19.02015       94.64805
H         55.11722       19.22440       96.36063
N         59.14605       18.68993       90.90217
C         59.47878       19.05255       89.52892
C         60.71659       19.92141       89.34987
O         60.89085       20.41900       88.24557
H         59.12796       17.68735       91.13418
H         58.60398       19.59672       89.11216
H         59.61798       18.13375       88.91816
N         61.63251       20.13253       90.34061
C         62.80646       21.00216       90.18821
C         64.09838       20.19109       90.17586
O         64.03352       18.97028       90.25315
C         62.79528       22.09460       91.28745
C         61.59442       23.02970       91.13157
O         62.75718       21.50964       92.56467
H         61.50668       19.64649       91.23944
H         62.78853       21.52082       89.20380
H         63.69193       22.74757       91.18371
H         63.66261       21.59289       92.96185
H         60.64210       22.47393       91.21681
H         61.61678       23.80946       91.92171
H         61.62597       23.53114       90.14056
N         65.31286       20.80544       90.02300
C         66.57747       20.08538       89.85318
C         67.45222       20.37140       91.06385
O         67.72379       21.53603       91.33030
C         67.30759       20.51721       88.52877
C         68.28054       19.43468       87.97397
C         66.31757       20.84952       87.39425
C         69.40653       18.98431       88.89801
H         65.34880       21.83660       89.99260
H         66.36948       18.99609       89.77883
H         67.86624       21.46244       88.71518
H         68.76233       19.83917       87.05643
H         67.69908       18.53215       87.68062
H         66.87227       21.17224       86.48572
H         65.68813       19.97154       87.14167
H         65.66230       21.70098       87.67267
H         69.00768       18.43534       89.76566
H         70.05651       18.27131       88.34835
H         70.02068       19.84625       89.22843
N         67.92328       19.36283       91.84750
C         68.70719       19.57769       93.05923
C         70.14033       19.09831       92.90960
O         71.02517       19.84263       93.30488
C         68.02982       18.88067       94.24869
C         66.69582       19.50485       94.54674
O         66.61423       20.81218       94.85995
O         65.68279       18.83150       94.52410
H         67.69983       18.39005       91.58684
H         68.76787       20.66050       93.31581
H         68.66107       18.99868       95.15561
H         67.91869       17.79237       94.04087
N         70.45153       17.87214       92.39231
C         71.81867       17.34217       92.32447
C         71.78304       15.89680       91.81569
O         72.36432       15.60888       90.78128
C         72.73214       18.25911       91.45224
C         74.18470       17.83018       91.40829
C         74.82262       17.62320       90.17200
C         74.92776       17.66861       92.59381
C         76.17344       17.26286       90.12359
C         76.27512       17.29667       92.53998
C         76.89815       17.09682       91.30616
H         69.67587       17.28449       92.05442
H         72.23490       17.32154       93.35300
H         72.75059       19.28434       91.86339
H         72.30895       18.32769       90.42607
H         74.28042       17.75516       89.24420
H         74.47059       17.82905       93.56113
H         76.66034       17.11644       89.16809
H         76.83878       17.16916       93.45556
H         77.94346       16.81765       91.26649
N         71.09784       14.92243       92.49890
C         70.95860       13.53971       92.05454
C         70.50357       13.40060       90.61896
O         71.02968       12.55476       89.90702
C         69.85564       12.99191       92.97174
C         70.13662       13.71839       94.26121
C         70.40796       15.13147       93.75884
H         71.91610       12.99869       92.22790
H         68.85818       13.34873       92.62519
H         69.82306       11.88356       93.03841
H         69.34022       13.64934       95.03229
H         71.08131       13.29958       94.67640
H         69.45701       15.67251       93.57108
H         71.02190       15.66388       94.51603
N         69.51371       14.20134       90.13382
C         68.94839       14.06934       88.80231
C         70.03493       14.19648       87.75146
O         70.15132       13.30947       86.91772
C         67.82626       15.09990       88.51270
C         66.51730       14.95253       89.31947
C         66.47256       15.59213       90.67888
O         65.63330       16.61815       90.91138
O         67.07936       15.11433       91.62076
H         69.16700       14.94706       90.74432
H         68.48508       13.06084       88.70539
H         67.52480       14.88934       87.46195
H         68.18577       16.15008       88.54747
H         66.22488       13.88217       89.40194
H         65.72536       15.46118       88.73052
N         70.88803       15.25852       87.75639
C         71.95813       15.42275       86.79232
H         72.93551       15.38951       87.31821
H         71.95439       14.63026       86.01389
H         71.85177       16.40535       86.28860
H         70.79944       15.96977       88.49623
Ca        64.96957       16.60176       93.04646
O         63.81051       14.36615       91.56450
H         64.14758       13.83395       92.32748
H         63.41470       13.70341       90.94681
O         62.06100       16.74979       90.79173
H         62.13204       16.90277       89.81598
H         61.20546       16.26521       90.90491
O         62.95152       18.80461       93.94422
H         62.74141       19.22967       94.81374
H         62.21317       19.07993       93.34737

Ca 1.0



