%chk=apoCaM-CA-Ng.loop1.water3.frame1406.chk
%nprocshared=20
%mem=10GB
%nosave
#b3lyp/svp scf=(tight,noincore,xqc) Test 
#IOP(5/87=12) Density=Current Pop=(MK,readradii) iop(6/33=2) iop(6/42=6)

apoCaM-CA-Ng.loop1.water3.frame1406 

   0  1 
C         52.65372       63.92889       98.71346
C         51.95586       65.13154       98.15361
O         52.02390       65.35536       96.95321
H         53.41387       64.25268       99.45533
H         51.91461       63.26643       99.21003
H         53.16276       63.35705       97.90791
N         51.25847       65.95892       98.98272
C         50.57363       67.16319       98.52725
C         51.20708       68.34768       99.23118
O         50.54240       69.10093       99.92952
C         49.06182       67.05509       98.80727
C         48.44932       65.84357       98.15605
O         47.57899       65.97380       97.31106
O         48.83354       64.60575       98.52568
H         51.22318       65.73376       99.98939
H         50.71062       67.30587       97.43199
H         48.56543       67.97357       98.42303
H         48.87979       66.98974       99.90156
N         52.54842       68.51768       99.11602
C         53.30944       69.53205       99.83082
C         52.95481       70.96559       99.44809
O         52.88305       71.77169      100.36621
C         54.83176       69.26590       99.75968
C         55.13946       67.85602      100.31247
C         56.62547       67.57490      100.53042
C         56.79234       66.12266      101.01378
N         58.18086       65.82168      101.34956
H         53.05816       67.84644       98.52302
H         53.06858       69.42415      100.91356
H         55.33938       70.02044      100.40140
H         55.21812       69.36901       98.72199
H         54.73975       67.08763       99.61990
H         54.63586       67.73587      101.29742
H         57.01464       68.27813      101.29910
H         57.19291       67.71971       99.58584
H         56.44673       65.43091      100.21196
H         56.16164       65.94796      101.91473
H         58.80020       65.99331      100.52544
H         58.48438       66.41309      102.15695
H         58.24944       64.81505      101.62581
N         52.67670       71.41581       98.18734
C         52.62072       70.62669       96.95970
C         51.16869       70.50631       96.49633
O         50.28484       71.11079       97.08545
C         53.59299       71.19099       95.90822
C         53.46669       72.67103       95.71834
O         52.41836       73.16770       95.34413
O         54.52102       73.45964       95.99962
H         52.41616       72.41146       98.10278
H         52.96231       69.59849       97.12140
H         53.46944       70.66266       94.94126
H         54.62943       70.99554       96.26186
N         50.84593       69.61486       95.51658
C         49.47779       69.24248       95.17945
C         48.66313       70.30796       94.48646
O         49.14273       71.41354       94.28075
H         51.60501       69.07870       95.07268
H         48.94655       68.90857       96.09685
H         49.52358       68.37771       94.48179
N         47.41545       69.98658       94.03495
C         46.56078       70.85655       93.21795
C         45.49059       70.03025       92.47369
O         45.15912       68.94385       92.93630
C         45.84380       71.93195       94.07362
C         46.76387       72.92567       94.71434
O         47.45473       73.65866       94.02411
O         46.79941       73.04200       96.05500
H         47.12060       69.01005       94.19682
H         47.21330       71.32845       92.46167
H         45.24357       71.42032       94.85658
H         45.13830       72.51793       93.45366
N         44.86968       70.44406       91.32528
C         45.17356       71.67310       90.60703
C         46.57251       71.66175       90.04052
O         47.23548       70.63790       90.06136
H         44.13219       69.84435       90.92460
H         45.04753       72.53378       91.28874
H         44.46199       71.81590       89.76539
N         47.10450       72.82373       89.57252
C         48.50236       72.96502       89.15944
C         49.41028       72.51778       90.35782
O         49.05719       73.32821       91.44615
C         48.71135       74.44963       88.69771
C         50.05270       74.75740       88.03390
O         48.53232       75.33916       89.77294
H         46.49291       73.65379       89.57732
H         48.68081       72.29443       88.29067
H         47.95254       74.65502       87.90358
H         47.60750       75.69541       89.73171
H         50.04534       75.80694       87.66835
H         50.89658       74.67511       88.74497
H         50.21225       74.08661       87.16356
N         50.87687       72.53548       90.07672
C         51.77592       71.46607       90.64718
C         52.98627       72.05369       91.44029
O         52.75559       72.47441       92.75629
C         51.08877       70.25179       91.35437
C         50.33927       69.39120       90.30106
C         52.14400       69.37379       92.07352
C         49.56687       68.21066       90.89376
H         50.99101       72.46121       89.03956
H         52.31997       71.00502       89.78828
H         50.38758       70.62839       92.12497
H         51.06705       68.99591       89.55758
H         49.61882       70.01527       89.74532
H         52.68159       69.94678       92.85210
H         51.68163       68.52902       92.61628
H         52.89122       68.98268       91.35004
H         48.81929       68.57011       91.63088
H         49.04171       67.67244       90.07758
H         50.24280       67.47730       91.37730
N         53.72250       73.03963       90.65472
C         54.68746       73.86674       91.40523
C         55.11239       75.05169       90.56465
O         55.82520       75.89345       91.09314
C         55.91043       73.07842       91.96709
C         56.79976       72.44762       90.89598
O         55.48473       72.06740       92.84636
H         54.19447       72.54049       89.86676
H         54.16192       74.32758       92.27164
H         56.55391       73.80814       92.51887
H         55.70514       72.35500       93.77049
H         56.24695       71.67899       90.31934
H         57.19088       73.22303       90.20531
H         57.66416       71.95150       91.38812
N         54.68410       75.22236       89.27229
C         54.94357       76.44707       88.53057
C         54.21753       77.56043       89.26375
O         52.99635       77.61477       89.21452
C         54.50433       76.33601       87.04308
C         55.30351       75.25434       86.29069
O         53.11704       76.11327       86.92247
H         54.12025       74.49467       88.81870
H         56.04207       76.62827       88.54085
H         54.72910       77.30165       86.54147
H         52.93342       75.14524       87.04239
H         56.38933       75.48294       86.32763
H         55.14215       74.24799       86.73297
H         54.98463       75.21913       85.22768
N         54.91648       78.36541       90.11479
C         54.32828       79.28390       91.08879
C         53.43058       78.55354       92.08883
O         53.02323       77.43084       91.83374
C         53.55587       80.43247       90.41543
C         54.40813       81.16885       89.37345
C         53.60634       82.29730       88.71843
C         54.41859       82.97937       87.61123
N         53.64395       84.04757       86.98138
H         55.94326       78.26889       90.14249
H         55.17789       79.71885       91.66250
H         53.22183       81.15067       91.19651
H         52.65113       80.02767       89.91321
H         54.71810       80.44969       88.58392
H         55.31962       81.58573       89.85542
H         53.32296       83.04497       89.49149
H         52.67921       81.87588       88.27110
H         54.69407       82.22562       86.83952
H         55.35438       83.40355       88.03804
H         53.40419       84.78074       87.68761
H         54.21469       84.48162       86.22061
H         52.76658       83.65832       86.56521
N         53.11190       79.13189       93.28194
C         52.19915       78.52864       94.25856
C         52.49386       77.05458       94.52533
O         51.58194       76.26392       94.32651
C         52.16774       79.31906       95.58855
C         51.56445       80.72273       95.43597
C         51.61986       81.46414       96.74108
O         52.69753       81.72219       97.25444
O         50.48373       81.85857       97.34619
H         53.55161       80.03704       93.50404
H         51.16978       78.56189       93.83277
H         53.18809       79.39418       96.01369
H         51.53697       78.76766       96.32201
H         50.50661       80.62351       95.10709
H         52.11222       81.31849       94.67838
N         53.68346       76.55323       94.95908
C         54.89843       77.29324       95.21026
H         55.70543       76.87988       94.56987
H         54.81339       78.36806       94.98786
H         55.18658       77.16213       96.27433
H         53.73581       75.53879       95.10661
Ca        50.70977       73.23799       92.87110
O         50.39424       76.16725       91.72419
H         50.35401       76.98956       91.17439
H         51.11614       75.62703       91.31449
O         48.46607       76.75718       94.27214
H         48.62107       77.52095       93.66133
H         47.48099       76.66384       94.30834
O         49.86509       74.14768       96.18250
H         50.16137       73.85085       97.07933
H         48.98631       74.57344       96.34031

Ca 1.0



