%chk=apoCaM-CA-Ng.loop1.water3.frame1126.chk
%nprocshared=20
%mem=10GB
%nosave
#b3lyp/svp scf=(tight,noincore,xqc) Test 
#IOP(5/87=12) Density=Current Pop=(MK,readradii) iop(6/33=2) iop(6/42=6)

apoCaM-CA-Ng.loop1.water3.frame1126 

   0  1 
C         99.86134       53.47441       71.06306
C         99.60007       53.09902       69.63658
O         99.64536       53.98253       68.79538
H        100.87306       53.92794       71.13674
H         99.10862       54.21968       71.39568
H         99.81827       52.59145       71.73239
N         99.31332       51.81037       69.28524
C         99.09823       51.39713       67.89965
C         97.65508       50.99260       67.66243
O         97.38543       49.93310       67.11185
C        100.13086       50.32271       67.48560
C        100.07057       49.02359       68.25771
O         99.14893       48.80839       69.21721
O        100.87281       48.14126       67.99934
H         99.24440       51.10527       70.03213
H         99.26195       52.26215       67.22555
H        101.14595       50.75589       67.61616
H         99.99492       50.09089       66.40668
N         96.66236       51.84006       68.04165
C         95.25285       51.60611       67.76270
C         94.95671       51.76330       66.27442
O         94.40840       50.81963       65.72291
C         94.35377       52.46028       68.68494
C         94.52764       51.96167       70.13716
C         93.66662       52.70484       71.15928
C         93.84925       52.06310       72.54702
N         93.07711       52.76585       73.56873
H         96.92546       52.69181       68.56062
H         94.99840       50.55384       68.03152
H         93.28945       52.30979       68.39824
H         94.58934       53.54123       68.59936
H         95.59187       52.05298       70.44467
H         94.24635       50.88456       70.16997
H         92.59549       52.64303       70.86773
H         93.97402       53.77228       71.18978
H         94.92545       52.07932       72.83110
H         93.51871       50.99989       72.50757
H         93.41267       53.75258       73.65222
H         92.06017       52.75263       73.32631
H         93.21306       52.28389       74.48722
N         95.31741       52.83266       65.49766
C         96.06481       54.01903       65.90982
C         97.51871       53.89108       65.47854
O         97.87289       52.87234       64.89986
C         95.34200       55.30294       65.43278
C         94.85418       55.31994       63.99937
O         95.66598       55.30602       62.92253
O         93.65028       55.37177       63.80191
H         95.12271       52.74614       64.48686
H         96.12072       54.09429       67.00900
H         95.95671       56.19801       65.63826
H         94.43181       55.38953       66.06734
N         98.44349       54.84115       65.81575
C         99.87906       54.65942       65.61208
C        100.46850       55.64224       64.64405
O         99.75991       56.48152       64.12562
H         98.13267       55.70366       66.28877
H        100.10222       53.64503       65.22035
H        100.40128       54.76872       66.58286
N        101.78590       55.56429       64.32139
C        102.41609       56.39207       63.29330
C        103.52809       57.22924       63.91175
O        103.79927       57.03992       65.09078
C        102.93103       55.43702       62.19762
C        101.79824       54.63964       61.61187
O        100.88375       55.20544       61.03404
O        101.78260       53.29834       61.73192
H        102.36339       54.84782       64.79135
H        101.67692       57.09407       62.85225
H        103.67633       54.74187       62.64485
H        103.41855       55.97003       61.36847
N        104.22350       58.20423       63.25181
C        104.05827       58.65473       61.87604
C        102.70584       59.27502       61.60382
O        102.27349       60.11997       62.37437
H        104.95122       58.69911       63.79234
H        104.31481       57.86436       61.14808
H        104.80429       59.46112       61.70403
N        102.03306       58.97974       60.45322
C        100.79135       59.64684       60.06480
C         99.62154       59.16319       60.89866
O         99.36313       57.96984       60.94979
C        100.47071       59.44611       58.56510
C        101.53057       60.11522       57.67947
O         99.22627       60.04014       58.28341
H        102.47038       58.32240       59.78937
H        100.91713       60.74651       60.19311
H        100.42763       58.35222       58.35239
H         98.83222       59.54912       57.51628
H        102.53662       59.68301       57.85295
H        101.26744       59.97975       56.60958
H        101.57095       61.20728       57.88993
N         98.83843       60.08088       61.53000
C         97.64844       59.80745       62.32423
C         96.51630       59.16575       61.51104
O         96.63105       58.02777       61.07832
C         97.95141       58.95774       63.58900
C         99.19100       59.44089       64.38989
C         96.71715       58.86914       64.50796
C         99.11169       60.87182       64.91995
H         99.09782       61.07556       61.44167
H         97.29717       60.79587       62.69431
H         98.16851       57.93218       63.24796
H        100.09349       59.35643       63.74983
H         99.34457       58.76201       65.25761
H         95.86077       58.39801       63.98118
H         96.95112       58.24970       65.39780
H         96.39761       59.87406       64.85218
H        100.04285       61.09956       65.48099
H         99.02620       61.59636       64.08540
H         98.25577       60.99527       65.61335
N         95.33196       59.82648       61.40356
C         94.06056       59.18411       61.06206
C         93.76205       58.96286       59.57675
O         92.64729       58.53502       59.30583
C         92.89827       59.97767       61.73497
C         92.70266       61.39053       61.16412
O         93.12832       60.07996       63.11802
H         95.29683       60.75831       61.83874
H         94.03495       58.18236       61.54815
H         91.93716       59.43667       61.57224
H         92.95420       59.18332       63.50813
H         93.59537       62.03081       61.31383
H         92.47439       61.34868       60.07935
H         91.85020       61.87985       61.68098
N         94.65200       59.18769       58.56431
C         94.26376       59.05255       57.15279
C         94.84210       57.80130       56.50930
O         96.05061       57.62174       56.48402
C         94.61316       60.31758       56.33503
C         93.78781       61.53552       56.78005
O         95.99396       60.58803       56.35963
H         95.62015       59.45468       58.79261
H         93.15978       58.95610       57.06932
H         94.32702       60.13186       55.27513
H         96.20401       61.05623       57.20908
H         92.70272       61.31628       56.67409
H         93.99652       61.79585       57.83843
H         94.02736       62.40797       56.13609
N         93.98498       56.91055       55.91951
C         94.35427       55.68900       55.21317
C         94.93461       54.67239       56.17304
O         96.05393       54.21386       55.98880
C         95.23241       55.96798       53.96943
C         94.57342       57.00689       53.04594
C         95.33209       57.17033       51.72401
C         94.71877       58.30704       50.89193
N         95.39040       58.44118       49.60017
H         92.97427       57.11489       55.94295
H         93.41636       55.23022       54.82334
H         95.35511       55.00963       53.41644
H         96.24110       56.33024       54.26119
H         94.54595       57.98276       53.57756
H         93.53010       56.69875       52.81287
H         95.27768       56.21500       51.15592
H         96.39935       57.40739       51.92441
H         94.81663       59.26147       51.45685
H         93.63667       58.11228       50.72013
H         94.98022       59.25433       49.08600
H         96.41341       58.60873       49.73761
H         95.24568       57.57517       49.03185
N         94.17372       54.26193       57.22866
C         94.59989       53.26634       58.20559
C         94.73000       53.88594       59.59256
O         95.85088       53.88702       60.08286
C         93.67158       52.02878       58.21272
C         93.70753       51.25914       56.88679
C         92.74853       50.10187       56.92361
O         93.20268       48.84012       56.80395
O         91.55076       50.30105       57.05592
H         93.24224       54.68436       57.32430
H         95.61326       52.88871       57.93712
H         92.62578       52.30896       58.42005
H         93.99865       51.33697       59.02053
H         94.73980       50.88300       56.71558
H         93.42571       51.92254       56.04182
N         93.71173       54.41487       60.34037
C         92.30863       54.53776       60.00342
H         92.00659       55.60102       60.09960
H         92.04576       54.22043       58.99082
H         91.71230       53.93562       60.72140
H         93.95263       54.76643       61.27438
Ca        97.88536       55.29414       62.63029
O         98.26986       52.30596       62.00205
H         98.89585       51.64966       61.60758
H         98.85342       52.89311       62.54330
O         97.97744       56.14261       58.70644
H         97.00674       56.33673       58.72234
H         98.34626       56.76700       58.03239
O         99.14828       53.35634       59.14540
H         98.58108       52.54511       59.15873
H        100.01989       53.05480       59.50501

Ca 1.0



