%chk=apoCaM-CA-Ng.loop3.water3.frame763.chk
%nprocshared=20
%mem=10GB
%nosave
#b3lyp/svp scf=(tight,noincore,xqc) Test 
#IOP(5/87=12) Density=Current Pop=(MK,readradii) iop(6/33=2) iop(6/42=6)

apoCaM-CA-Ng.loop3.water3.frame763 

   0  1 
C         93.01427       14.33916       12.72529
C         93.94673       14.36425       13.90386
O         94.90706       13.60826       13.91510
H         92.19324       15.07904       12.83881
H         93.58196       14.59897       11.80546
H         92.57169       13.32972       12.60730
N         93.75417       15.25691       14.91336
C         94.70712       15.43640       16.00244
C         94.66822       14.26796       16.98336
O         93.62716       14.03233       17.58134
C         94.41606       16.77960       16.70323
C         95.52513       17.24851       17.59831
O         95.41781       18.32068       18.16638
O         96.65761       16.53723       17.73933
H         92.95465       15.90594       14.83942
H         95.71189       15.52961       15.54623
H         93.45815       16.71522       17.26371
H         94.30510       17.56638       15.92605
N         95.76683       13.48024       17.18408
C         95.76754       12.32714       18.08834
C         95.73687       12.72993       19.56613
O         95.45471       11.87234       20.39102
C         96.97892       11.40249       17.80914
C         96.93370       10.83509       16.37403
C         98.13544        9.95210       16.00070
C         98.25403        8.68090       16.85520
N         99.32963        7.82127       16.35974
H         96.61106       13.67725       16.63241
H         94.84934       11.73398       17.87748
H         96.95474       10.55621       18.52748
H         97.92511       11.96288       17.96256
H         96.91674       11.67017       15.64310
H         95.99799       10.24947       16.24191
H         99.07517       10.54263       16.07090
H         97.99876        9.64705       14.93973
H         97.29585        8.11702       16.81681
H         98.46460        8.95187       17.91197
H         99.12255        7.51757       15.38008
H        100.24266        8.33074       16.38425
H         99.39740        6.97197       16.96580
N         96.03722       13.99688       19.97674
C         95.96059       14.46628       21.36275
C         94.99680       15.64985       21.50714
O         94.82977       16.13366       22.61843
C         97.37044       14.79730       21.90522
C         98.18077       15.67888       20.99814
O         97.72564       16.87929       20.60808
O         99.25821       15.28678       20.58019
H         96.34562       14.67629       19.27298
H         95.55599       13.67093       22.02741
H         97.92622       13.84168       22.03217
H         97.28430       15.26264       22.91125
N         94.27128       16.11936       20.45159
C         93.22712       17.12339       20.55915
C         93.66707       18.55612       20.79610
O         92.76984       19.38772       20.80639
H         94.36340       15.67074       19.53368
H         92.50309       16.81630       21.34559
H         92.67352       17.13550       19.59494
N         94.96548       18.95270       20.99265
C         95.31459       20.36682       21.18393
C         96.46652       20.83053       20.30202
O         97.15467       20.01604       19.70890
C         95.63904       20.67380       22.66717
C         97.04407       20.30347       23.10523
N         97.48226       19.02474       23.12479
O         97.80499       21.19724       23.44784
H         95.70418       18.24394       21.02632
H         94.42899       20.98652       20.92544
H         94.87797       20.20767       23.32890
H         95.54565       21.77509       22.79845
H         96.87088       18.24282       22.86510
H         98.44983       18.81592       23.41408
N         96.76000       22.15882       20.23783
C         97.95194       22.72265       19.62580
C         98.16155       22.33677       18.18131
O         97.25597       22.48807       17.37381
H         96.12496       22.82251       20.70677
H         98.83869       22.42498       20.22610
H         97.87668       23.83006       19.68174
N         99.39362       21.90471       17.77887
C         99.72881       21.60546       16.38894
C         99.08515       20.31045       15.92111
O         98.42684       19.65022       16.71013
C        101.25999       21.73164       16.16180
C        102.16278       20.91102       17.05956
C        102.33314       19.53153       16.87048
C        102.88884       21.55349       18.08266
C        103.22045       18.81413       17.68795
C        103.75424       20.83191       18.90656
C        103.92757       19.46160       18.71083
O        104.77846       18.78106       19.50576
H        100.14484       21.87617       18.48377
H         99.29711       22.41049       15.75189
H        101.48441       22.80421       16.35692
H        101.53465       21.56026       15.09936
H        101.80217       19.01974       16.07830
H        102.78210       22.61806       18.25018
H        103.36934       17.75576       17.52827
H        104.29728       21.34190       19.69280
H        104.93402       17.83145       19.40312
N         99.16585       19.94675       14.60649
C         98.44061       18.83968       13.97728
C         98.85320       17.48539       14.52992
O         98.63394       17.22106       15.70220
C         96.89516       19.04440       14.07336
C         96.08572       17.90374       13.39794
C         96.48229       20.41323       13.50517
C         96.35110       17.69832       11.90420
H         99.72742       20.54035       13.97723
H         98.70570       18.86481       12.89848
H         96.59592       19.03791       15.14367
H         95.00067       18.10092       13.53758
H         96.31063       16.95207       13.91265
H         96.76658       20.50881       12.43734
H         95.38458       20.55201       13.60308
H         96.97274       21.23445       14.06861
H         97.40804       17.42067       11.71930
H         95.71721       16.86418       11.53589
H         96.09864       18.60683       11.32225
N         99.43852       16.55861       13.71568
C         99.81236       15.22808       14.18371
C        100.70566       14.53323       13.17456
O        100.43221       13.40386       12.78639
C         98.55314       14.39025       14.49796
O         97.80004       14.14776       13.33778
H         99.64640       16.81906       12.73960
H        100.42109       15.34112       15.10231
H         97.92431       14.88765       15.25915
H         98.85110       13.41034       14.92829
H         97.33075       14.99111       13.11239
N        101.80903       15.17550       12.70026
C        102.72853       14.57261       11.74695
C        104.15733       14.64323       12.27062
O        104.41135       15.43323       13.17050
C        102.60098       15.31297       10.41787
H        101.98736       16.14557       13.00624
H        102.45168       13.51138       11.58428
H        102.86384       16.38559       10.53958
H        103.26032       14.86697        9.65730
H        101.55507       15.24226       10.04899
N        105.16760       13.84916       11.80686
C        104.99413       12.72253       10.89755
C        106.27641       12.46973       10.11182
O        107.31421       12.32285       10.74265
C        104.66853       11.47175       11.72325
H        106.07891       13.93779       12.28443
H        104.13851       12.88760       10.22398
H        103.73310       11.62156       12.30260
H        104.52322       10.59829       11.05188
H        105.48733       11.24377       12.43926
N        106.32177       12.33248        8.75181
C        105.16341       12.39219        7.86567
C        104.71369       13.83103        7.61664
O        103.65269       14.02159        7.03949
C        105.51334       11.67842        6.53619
C        104.31748       11.46024        5.59527
C        104.73844       10.68783        4.37764
O        104.60996       11.17495        3.26578
O        105.25188        9.44897        4.50546
H        107.23617       12.08350        8.34047
H        104.34646       11.79784        8.33047
H        105.91357       10.67288        6.79757
H        106.31369       12.24352        6.00851
H        103.89540       12.43111        5.26814
H        103.52641       10.88523        6.12341
N        105.47265       14.90096        7.99454
C        105.07452       16.26308        7.70401
H        104.10940       16.50117        8.19482
H        105.84556       16.97117        8.07447
H        104.96776       16.39959        6.60647
H        106.37431       14.76241        8.47145
Ca        98.89697       17.94891       19.00600
O        100.96885       16.67294       17.44020
H        101.57204       16.53928       16.66767
H        101.41439       16.20458       18.18958
O        101.12554       18.96389       20.63929
H        100.49835       19.69445       20.40632
H        100.57090       18.30573       21.12978
O         99.05287       14.58754       17.65849
H         98.54231       14.17582       18.39718
H         99.85097       14.01121       17.55768

Ca 1.0



