%chk=apoCaM-CA-Ng.loop2.water4.frame755.chk
%nprocshared=20
%mem=10GB
%nosave
#b3lyp/svp scf=(tight,noincore,xqc) Test 
#IOP(5/87=12) Density=Current Pop=(MK,readradii) iop(6/33=2) iop(6/42=6)

apoCaM-CA-Ng.loop2.water4.frame755 

   -2  1 
C        -15.90048       35.51310        1.65679
C        -15.81511       36.10910        0.28243
O        -16.79491       36.06972       -0.44666
H        -16.91823       35.11267        1.85244
H        -15.16688       34.68494        1.74740
H        -15.67091       36.28847        2.41807
N        -14.65124       36.68106       -0.13514
C        -14.45958       37.28374       -1.45045
C        -14.85365       38.75833       -1.40766
O        -13.99923       39.61937       -1.56357
C        -12.98673       37.07248       -1.88149
C        -12.71345       37.58383       -3.27005
O        -13.31653       37.12331       -4.22618
O        -11.79159       38.54635       -3.46536
H        -13.85134       36.67278        0.51774
H        -15.08855       36.76103       -2.20573
H        -12.75148       35.98628       -1.86312
H        -12.31037       37.58193       -1.15924
N        -16.15414       39.11640       -1.20044
C        -16.60740       40.50122       -1.11036
C        -17.23484       40.74496        0.24804
O        -17.66546       39.78626        0.86961
C        -17.64593       40.76392       -2.20468
H        -16.86376       38.37974       -1.10007
H        -15.74948       41.19159       -1.24322
H        -18.02478       41.80535       -2.16222
H        -17.19547       40.59269       -3.20403
H        -18.51326       40.07849       -2.08223
N        -17.33924       41.98560        0.80950
C        -16.78768       43.21939        0.24918
C        -15.34476       43.40130        0.68233
O        -14.83196       42.53352        1.37390
C        -17.67304       44.42227        0.66439
C        -17.73382       44.72075        2.14620
O        -18.42906       45.64395        2.53799
O        -17.03422       44.00272        3.04537
H        -17.75185       42.02380        1.75482
H        -16.80963       43.18753       -0.85745
H        -18.70671       44.22654        0.30639
H        -17.30853       45.33801        0.15407
N        -14.61969       44.50068        0.32788
C        -13.29908       44.76807        0.88099
C        -12.20227       44.77634       -0.15886
O        -12.48909       44.58363       -1.33308
H        -15.03211       45.20248       -0.30634
H        -13.04974       44.00624        1.63865
H        -13.32480       45.75225        1.39423
N        -10.89412       44.99374        0.17866
C        -10.42320       45.22180        1.55094
C        -10.68041       44.00651        2.42784
O        -10.70181       42.89485        1.91530
C         -8.92282       45.57548        1.57203
C         -8.63875       46.85075        0.81330
N         -9.18506       48.02682        1.20514
O         -7.90103       46.82229       -0.16038
H        -10.20105       45.00547       -0.58690
H        -10.98212       46.08265        1.97513
H         -8.34189       44.73434        1.13127
H         -8.58374       45.71839        2.62085
H         -9.79990       48.07717        2.03028
H         -8.98854       48.89511        0.68562
N        -10.98518       44.15796        3.75196
C        -11.45314       43.03541        4.55025
C        -11.71314       43.40665        5.99808
O        -10.75082       43.58301        6.73121
H        -10.94801       45.09835        4.17368
H        -10.71938       42.19997        4.52717
H        -12.38628       42.66991        4.08502
N        -12.98913       43.53962        6.48197
C        -13.30318       43.78936        7.89016
C        -14.43830       42.82261        8.36112
O        -15.68759       43.28960        7.93467
C        -13.67219       45.27706        8.12178
C        -12.48205       46.20620        7.87969
O        -14.72116       45.66492        7.26836
H        -13.77511       43.48069        5.82208
H        -12.40229       43.56969        8.50433
H        -13.95849       45.39951        9.19443
H        -15.49043       45.92783        7.83724
H        -12.13594       46.14422        6.82664
H        -12.78078       47.25506        8.09037
H        -11.64286       45.93850        8.55654
N        -14.48675       42.65519        9.82283
C        -15.30052       41.47368       10.21724
C        -16.61254       41.94835       10.83359
O        -16.59257       42.68130       11.81227
C        -14.52818       40.51844       11.19294
C        -15.47584       39.42138       11.76385
C        -13.33980       39.86274       10.45255
C        -14.81876       38.46351       12.75762
H        -13.51851       42.60293       10.21006
H        -15.54816       40.84793        9.32732
H        -14.14447       41.11648       12.04936
H        -15.91728       38.82924       10.93430
H        -16.30086       39.91151       12.32272
H        -12.73568       39.23697       11.13852
H        -13.71005       39.22483        9.62033
H        -12.64350       40.61134       10.02787
H        -14.04376       37.84049       12.26908
H        -14.37092       39.02959       13.60153
H        -15.59090       37.77489       13.16255
N        -17.79600       41.49604       10.32335
C        -19.12238       41.81875       10.83550
C        -19.87305       40.58214       11.35880
O        -21.01914       40.74580       11.75473
C        -19.94522       42.45019        9.69504
C        -19.26290       43.65028        9.10495
O        -18.99453       44.72559        9.86930
O        -18.94886       43.65291        7.92585
H        -17.76317       40.88856        9.50335
H        -19.04986       42.54691       11.67365
H        -20.94372       42.76036       10.07159
H        -20.09730       41.68902        8.89599
N        -19.30895       39.33405       11.42544
C        -20.00806       38.15153       11.93860
C        -19.94062       36.99653       10.92765
O        -19.35915       35.96685       11.24464
C        -19.41282       37.79931       13.32531
C        -20.03883       36.57973       13.97766
C        -21.43260       36.47725       14.15350
C        -19.21867       35.52820       14.42804
C        -21.98914       35.34160       14.75196
C        -19.77947       34.40185       15.03855
C        -21.16359       34.30645       15.19630
H        -18.32487       39.21147       11.15731
H        -21.07779       38.37401       12.12183
H        -19.58614       38.66987       13.99472
H        -18.31254       37.66172       13.23437
H        -22.09450       37.26557       13.82228
H        -18.14292       35.58205       14.31667
H        -23.06211       35.26434       14.87327
H        -19.14017       33.60193       15.38966
H        -21.59615       33.43135       15.66460
N        -20.53982       37.06993        9.69322
C        -20.58258       35.98054        8.70977
C        -19.25119       35.52355        8.12105
O        -19.27147       34.67627        7.23828
C        -21.42008       36.56830        7.56586
C        -22.35269       37.49732        8.30072
C        -21.39550       38.16470        9.28135
H        -21.11164       35.12023        9.17875
H        -20.77449       37.21736        6.92772
H        -21.90662       35.80831        6.91674
H        -22.91870       38.20171        7.65598
H        -23.07359       36.86900        8.87359
H        -20.77038       38.93647        8.78078
H        -21.99659       38.60810       10.10044
N        -18.06370       36.04063        8.53258
C        -16.77691       35.63347        8.00736
C        -16.32549       34.44965        8.82270
O        -16.08520       33.39344        8.25480
C        -15.73860       36.78960        8.05754
C        -16.05240       37.98573        7.12746
C        -17.16594       38.89623        7.57556
O        -17.49041       39.84022        6.88301
O        -17.77829       38.73716        8.75097
H        -18.04843       36.64084        9.35382
H        -16.86818       35.32349        6.94054
H        -14.77907       36.36105        7.69305
H        -15.56726       37.14897        9.09534
H        -16.27347       37.59956        6.10954
H        -15.14336       38.62343        7.06056
N        -16.26049       34.54346       10.18084
C        -15.94477       33.42777       11.04457
H        -15.06608       33.68388       11.66952
H        -16.81539       33.23074       11.70633
H        -15.72552       32.50092       10.47485
H        -16.48816       35.43941       10.63773
Ca       -16.35944       42.17027        6.09672
O        -14.72388       41.90667        3.93014
H        -15.59861       41.58750        3.59758
H        -14.79009       42.89420        3.87322
O        -17.47059       45.26675        5.86699
H        -17.77180       45.74678        6.67875
H        -18.27863       45.21593        5.29794
O        -19.74794       42.37486        4.84991
H        -20.57654       42.28845        5.38545
H        -19.90076       41.79636        4.06082
O        -17.39595       39.75986        4.23073
H        -18.11865       39.10700        4.40722
H        -17.19151       39.65428        3.27205

Ca 1.0



