%chk=apoCaM-CA-Ng.loop3.water2.frame974.chk
%nprocshared=20
%mem=10GB
%nosave
#b3lyp/svp scf=(tight,noincore,xqc) Test 
#IOP(5/87=12) Density=Current Pop=(MK,readradii) iop(6/33=2) iop(6/42=6)

apoCaM-CA-Ng.loop3.water2.frame974 

   0  1 
C         67.23250       36.49633       58.03707
C         67.63976       37.40518       59.16082
O         66.76992       37.96582       59.81237
H         66.64242       37.06020       57.28671
H         68.11664       36.04886       57.53533
H         66.61197       35.66875       58.44349
N         68.95454       37.55856       59.48095
C         69.39345       38.32566       60.63906
C         69.21327       39.82701       60.39255
O         69.84678       40.35281       59.48727
C         70.86419       37.97050       60.94797
C         71.31569       38.39310       62.31177
O         72.48104       38.22943       62.63423
O         70.45241       38.90383       63.20625
H         69.65407       37.03015       58.93604
H         68.78870       37.97772       61.49890
H         71.51926       38.41671       60.16803
H         70.99635       36.86746       60.91702
N         68.32940       40.56926       61.12522
C         68.04412       41.98144       60.83847
C         69.20357       42.93426       61.12102
O         69.14310       44.06324       60.65378
C         66.77209       42.45570       61.58074
C         66.92870       42.49594       63.11292
C         65.59647       42.83469       63.79269
C         65.75027       42.86571       65.31916
N         64.46426       43.10663       65.97228
H         67.77052       40.08081       61.83583
H         67.81578       42.04008       59.75027
H         65.94431       41.76390       61.31062
H         66.49121       43.47286       61.22643
H         67.69517       43.25235       63.39105
H         67.26087       41.50670       63.48556
H         64.84979       42.05636       63.52081
H         65.22857       43.82265       63.43851
H         66.46858       43.66680       65.60376
H         66.15218       41.89127       65.67075
H         63.79887       42.33169       65.74551
H         64.60663       43.13344       67.00787
H         64.06311       44.02010       65.65929
N         70.25906       42.57785       61.90677
C         71.39972       43.45233       62.18343
C         72.66405       42.79551       61.65088
O         73.33387       43.42169       60.84054
C         71.41811       43.91159       63.66877
C         71.25326       42.82331       64.68404
O         70.19827       42.71942       65.28953
O         72.21820       41.92290       64.90036
H         70.25423       41.64408       62.34084
H         71.30704       44.41191       61.62521
H         70.53499       44.57949       63.78407
H         72.32007       44.52067       63.89314
N         73.00503       41.51272       61.96956
C         74.11612       40.80864       61.34039
C         75.14760       40.29393       62.31716
O         76.10385       39.68643       61.85642
H         72.41411       40.98099       62.62014
H         74.64405       41.45607       60.60830
H         73.70508       39.94243       60.77893
N         75.04500       40.49280       63.66256
C         76.05124       40.04616       64.61822
C         75.45318       39.07935       65.62457
O         74.24533       38.88269       65.64011
C         76.59326       41.27725       65.37580
C         77.15168       42.32196       64.44261
N         76.60209       43.55923       64.38519
O         78.10847       42.05009       63.73339
H         74.24075       41.00412       64.03877
H         76.88639       39.53019       64.09614
H         77.38836       40.97710       66.09048
H         75.75926       41.72128       65.96522
H         75.79207       43.80877       64.97219
H         76.98427       44.27373       63.74838
N         76.26126       38.46677       66.53538
C         75.75635       37.68520       67.64921
C         74.94773       36.48067       67.23238
O         75.48937       35.57169       66.61978
H         77.28009       38.61861       66.48136
H         75.13892       38.35704       68.28224
H         76.60711       37.33500       68.27322
N         73.62930       36.41066       67.57337
C         72.77462       35.25378       67.33834
C         71.69326       35.59334       66.31841
O         71.75263       36.65711       65.72021
C         72.15210       34.80779       68.68490
C         73.16644       34.54412       69.77434
C         73.07634       35.23829       70.99342
C         74.18769       33.59298       69.60350
C         73.98528       34.98406       72.02326
C         75.10240       33.34638       70.63376
C         75.00252       34.03649       71.84690
O         75.88309       33.77869       72.83504
H         73.20151       37.21866       68.05024
H         73.35793       34.40261       66.92465
H         71.58035       33.86838       68.54767
H         71.43688       35.59019       69.02208
H         72.29373       35.96921       71.15466
H         74.27727       33.04093       68.67694
H         73.89407       35.52136       72.95898
H         75.88626       32.61295       70.49181
H         75.83976       34.22678       73.69217
N         70.68031       34.70982       66.06659
C         69.61621       34.86250       65.07540
C         68.78069       36.12156       65.28702
O         69.29646       37.21550       65.11885
C         70.18279       34.80471       63.62404
C         69.06982       34.86934       62.53907
C         71.06624       33.55981       63.42033
C         68.04178       33.73234       62.58589
H         70.65802       33.82978       66.59983
H         68.95414       33.97891       65.20065
H         70.83833       35.68796       63.46332
H         69.54865       34.86248       61.53608
H         68.52031       35.82790       62.63026
H         70.49833       32.62444       63.60128
H         71.47361       33.54470       62.38712
H         71.93128       33.57609       64.11619
H         68.52626       32.74422       62.45175
H         67.47476       33.73945       63.53858
H         67.30999       33.86788       61.76232
N         67.45812       36.03938       65.61229
C         66.57734       37.20517       65.64431
C         65.31770       36.89440       66.42432
O         64.27783       36.62561       65.83504
C         66.22401       37.66974       64.21339
O         67.35542       38.08770       63.51096
H         67.05279       35.11146       65.81090
H         67.06938       38.04908       66.17416
H         65.48738       38.50596       64.24499
H         65.74836       36.83780       63.65015
H         67.60975       38.96879       63.88868
N         65.33816       36.98987       67.78229
C         64.16973       36.76926       68.62246
C         63.75450       38.07427       69.30329
O         64.47693       39.05486       69.17266
C         64.53115       35.68220       69.64708
H         66.22069       37.26463       68.24379
H         63.31729       36.42816       67.99750
H         65.39094       36.01450       70.26759
H         63.70294       35.43620       70.33299
H         64.81753       34.74969       69.11626
N         62.61191       38.21259       70.04348
C         61.60512       37.17391       70.24117
C         61.56596       36.75949       71.70676
O         61.98491       37.54681       72.54176
C         60.23771       37.68600       69.78223
H         62.43913       39.12638       70.49225
H         61.85065       36.30399       69.61923
H         60.28227       37.96888       68.70855
H         59.46002       36.90355       69.90618
H         59.93846       38.57907       70.37202
N         61.16162       35.52088       72.13018
C         60.68366       34.43820       71.27389
C         61.68186       33.28970       71.19426
O         61.42522       32.35207       70.45406
C         59.28595       33.93389       71.71933
C         59.23729       33.07779       73.00497
C         59.60823       33.81804       74.25413
O         58.89987       34.89730       74.63665
O         60.54749       33.43856       74.93593
H         61.25516       35.33527       73.13764
H         60.54644       34.80184       70.24067
H         58.90257       33.27693       70.90728
H         58.58675       34.79482       71.79794
H         59.89450       32.18917       72.88135
H         58.19904       32.70565       73.13557
N         62.84054       33.28415       71.91802
C         63.78090       32.18785       71.84226
H         64.64369       32.38332       72.51442
H         63.28896       31.24469       72.16175
H         64.15620       32.08060       70.80271
H         63.07637       34.06433       72.54495
Ca        71.36639       39.87413       64.99557
O         70.33400       38.34596       67.93677
H         69.59345       37.77581       68.26359
H         71.05097       38.23142       68.60939
O         68.59112       40.33426       66.35851
H         67.68640       40.35047       66.75917
H         68.45941       40.65876       65.43307

Ca 1.0



