%chk=apoCaM-CA-Ng.loop2.water3.frame310.chk
%nprocshared=20
%mem=10GB
%nosave
#b3lyp/svp scf=(tight,noincore,xqc) Test 
#IOP(5/87=12) Density=Current Pop=(MK,readradii) iop(6/33=2) iop(6/42=6)

apoCaM-CA-Ng.loop2.water3.frame310 

   -2  1 
C         58.95519       86.79065       21.51570
C         58.39015       88.16765       21.72303
O         57.30650       88.43668       21.22639
H         59.94704       86.67993       22.00182
H         58.26424       86.03585       21.94695
H         59.07127       86.59107       20.43003
N         59.05902       89.09140       22.47146
C         58.54586       90.43761       22.70913
C         58.56930       91.22525       21.41402
O         59.64117       91.39451       20.84708
C         59.39547       91.14882       23.78302
C         58.85169       92.49092       24.20693
O         59.50297       93.19354       25.15204
O         57.82463       92.94510       23.72605
H         59.94983       88.81263       22.91122
H         57.51144       90.34775       23.11105
H         60.43589       91.27718       23.41185
H         59.42692       90.50544       24.68834
N         57.41725       91.70947       20.86812
C         57.38507       92.36534       19.56462
C         57.95582       91.41670       18.53798
O         58.86265       91.78890       17.80735
C         55.94952       92.75239       19.18626
H         56.52888       91.55227       21.36903
H         57.98792       93.30081       19.59081
H         55.28935       91.86010       19.14146
H         55.53976       93.46207       19.93607
H         55.93906       93.25261       18.19335
N         57.50510       90.13173       18.50178
C         58.02983       89.08818       17.64020
C         57.73374       89.44249       16.20042
O         58.62419       89.48447       15.36265
C         59.51714       88.81216       17.96530
C         60.00695       87.56062       17.30144
O         60.96132       87.59453       16.54160
O         59.40244       86.38704       17.56509
H         56.74830       89.86032       19.14721
H         57.46038       88.15991       17.87509
H         59.62346       88.66389       19.06129
H         60.15428       89.67532       17.67775
N         56.44718       89.73724       15.87252
C         55.99102       90.11365       14.55154
C         54.90937       89.17809       14.05568
O         54.30864       89.48769       13.03712
H         55.73276       89.71262       16.61743
H         56.81888       90.14636       13.80996
H         55.56188       91.13492       14.63227
N         54.63045       87.99897       14.69147
C         53.62298       87.05624       14.22911
C         52.82436       86.52251       15.40892
O         53.41818       85.97234       16.32712
C         54.33283       85.88542       13.52322
C         53.38777       84.87885       12.90188
N         53.88746       83.78204       12.29152
O         52.17677       85.04452       12.93892
H         55.21170       87.70367       15.48919
H         52.95307       87.53566       13.48002
H         54.99132       85.36552       14.25283
H         54.97197       86.29237       12.70949
H         54.90440       83.62266       12.25139
H         53.25561       83.08830       11.86526
N         51.46467       86.59010       15.42134
C         50.65023       85.97148       16.45888
C         50.77225       84.45447       16.46646
O         51.54385       83.89459       15.69798
H         50.97835       87.07150       14.64935
H         49.58449       86.21359       16.25162
H         50.91275       86.38781       17.45468
N         49.97042       83.71499       17.28598
C         49.92247       82.25280       17.22975
C         51.09989       81.56155       17.92591
O         51.21037       80.35468       17.78337
C         48.56804       81.70335       17.75817
C         48.33333       81.94113       19.25787
O         47.49761       82.21101       16.99758
H         49.28753       84.22813       17.86229
H         49.95296       81.96191       16.15386
H         48.56695       80.60130       17.60910
H         47.35839       83.16126       17.24602
H         47.36194       81.49434       19.55630
H         49.13055       81.45378       19.85078
H         48.31086       83.02173       19.50493
N         52.00807       82.24468       18.68985
C         53.16880       81.61050       19.32271
C         54.41705       82.19209       18.69815
O         54.61082       83.39733       18.72860
C         53.15544       81.79869       20.86770
C         51.99090       81.02591       21.54466
C         54.50206       81.39774       21.51071
C         52.05105       79.49419       21.41087
H         51.89825       83.25994       18.81271
H         53.18558       80.52233       19.12227
H         53.01445       82.88100       21.08336
H         51.02676       81.37911       21.13136
H         51.99516       81.26730       22.62978
H         54.46007       81.53950       22.61128
H         54.76711       80.34457       21.28543
H         55.32555       82.04076       21.13470
H         51.97530       79.16725       20.35492
H         52.98238       79.08397       21.85280
H         51.19852       79.04235       21.95887
N         55.29560       81.35524       18.07700
C         56.45165       81.82921       17.33109
C         56.90604       80.71750       16.39362
O         58.08191       80.39036       16.33918
C         57.55313       82.31046       18.31112
C         58.73633       82.96808       17.65286
O         58.78346       83.12608       16.44364
O         59.75414       83.40682       18.41631
H         55.07773       80.34759       18.06344
H         56.11020       82.66379       16.67980
H         57.90719       81.43950       18.90702
H         57.12795       83.05286       19.01778
N         55.96868       80.05784       15.65489
C         56.24416       78.95252       14.74607
C         57.09030       77.87296       15.40841
O         56.70341       77.39094       16.46337
C         54.90209       78.35936       14.24122
C         55.09114       77.19934       13.28863
C         54.89173       77.37792       11.91088
C         55.46627       75.92717       13.76524
C         55.08872       76.31319       11.02635
C         55.65760       74.86602       12.87931
C         55.47414       75.05971       11.50957
H         54.98229       80.34164       15.77115
H         56.76918       79.36213       13.86306
H         54.36342       79.18354       13.72332
H         54.25476       78.02975       15.08504
H         54.60009       78.34431       11.51974
H         55.60608       75.74691       14.82217
H         54.94559       76.46154        9.96472
H         55.94883       73.89400       13.25692
H         55.62757       74.23735       10.82376
N         58.22562       77.38600       14.80852
C         58.97048       76.24609       15.31794
C         59.90985       76.61572       16.45271
O         60.46488       75.70817       17.05845
C         59.72820       75.75401       14.07830
C         60.04831       77.05796       13.37270
C         58.73482       77.81785       13.52032
H         58.28196       75.44270       15.66203
H         60.59331       75.08664       14.27806
H         59.00933       75.20877       13.42331
H         60.82739       77.58052       13.97253
H         60.40760       76.97188       12.32520
H         58.93703       78.90987       13.46938
H         58.00272       77.51973       12.73705
N         60.16978       77.91267       16.78314
C         61.05558       78.28227       17.88074
C         60.41821       78.01814       19.23914
O         61.10937       78.16810       20.23760
C         61.43881       79.77499       17.79381
C         62.23190       80.08966       16.51606
C         62.59184       81.54297       16.46232
O         62.21088       82.23619       15.53248
O         63.34585       82.08692       17.43684
H         59.76473       78.65971       16.20675
H         61.99247       77.68560       17.79806
H         62.07647       80.03964       18.66657
H         60.51675       80.39706       17.83391
H         61.63793       79.82847       15.61451
H         63.16879       79.49224       16.50284
N         59.10863       77.65851       19.37247
C         58.50447       77.44529       20.66919
H         57.43151       77.18432       20.54882
H         59.01901       76.61447       21.19627
H         58.57617       78.37303       21.27654
H         58.50429       77.55333       18.54660
Ca        61.50396       84.44949       17.44208
O         60.22481       85.11889       14.51320
H         60.23494       84.15336       14.29356
H         59.30109       85.29400       14.82430
O         64.20165       85.13577       16.27668
H         64.54696       84.20811       16.26485
H         64.48328       85.49354       17.15597
O         62.84978       84.86853       20.05938
H         62.14671       84.46317       20.62668
H         62.63171       85.83437       20.04568

Ca 1.0



