%chk=apoCaM-CA-Ng.loop4.water4.frame564.chk
%nprocshared=20
%mem=10GB
%nosave
#b3lyp/svp scf=(tight,noincore,xqc) Test 
#IOP(5/87=12) Density=Current Pop=(MK,readradii) iop(6/33=2) iop(6/42=6)

apoCaM-CA-Ng.loop4.water4.frame564 

   -3  1 
C         34.12891        4.65479       77.14446
C         33.24273        3.50702       77.53199
O         33.73149        2.56194       78.12886
H         34.94097        4.29002       76.48162
H         33.56119        5.44208       76.60415
H         34.57338        5.10630       78.05604
N         31.91266        3.53777       77.24220
C         30.95572        2.48633       77.57224
C         30.94265        2.19042       79.06420
O         30.97338        1.03163       79.45625
C         31.18473        1.21511       76.72394
C         31.13743        1.50731       75.25164
O         32.10618        1.27018       74.54819
O         30.02152        2.01890       74.69806
H         31.53417        4.37574       76.77417
H         29.94428        2.87473       77.31614
H         30.39465        0.46733       76.95320
H         32.16211        0.76323       76.97760
N         30.88620        3.21516       79.95795
C         30.75221        3.02449       81.40005
C         29.49496        3.74420       81.87340
O         29.12258        4.73289       81.25577
C         32.02450        3.49951       82.17606
C         32.37734        4.98517       81.90011
C         33.20720        2.56465       81.86139
C         33.52074        5.51508       82.77129
H         30.91366        4.17956       79.59335
H         30.62513        1.94850       81.62279
H         31.81831        3.39569       83.26215
H         31.49019        5.61454       82.12066
H         32.65227        5.12518       80.83271
H         34.09161        2.80127       82.48661
H         32.92973        1.51645       82.09641
H         33.49445        2.62884       80.79252
H         33.26717        5.40818       83.84752
H         34.47404        4.98884       82.56375
H         33.68211        6.59175       82.55249
N         28.78326        3.37181       82.97545
C         29.05855        2.20872       83.81217
C         28.67963        0.92105       83.10145
O         29.51615        0.04000       82.96682
C         28.24668        2.28855       85.12501
C         28.55716        3.54335       85.89352
O         27.66989        4.34454       86.14171
O         29.81386        3.79268       86.30780
H         27.99078        3.97849       83.24083
H         30.12923        2.19472       84.10587
H         28.49165        1.41318       85.76542
H         27.15662        2.26009       84.90579
N         27.40344        0.73999       82.65491
C         26.88871       -0.51620       82.13667
C         26.78771       -1.52701       83.25550
O         26.19448       -1.20824       84.27742
H         26.73849        1.52494       82.72221
H         27.50006       -0.87609       81.28030
H         25.85402       -0.34417       81.77002
N         27.32550       -2.77417       83.13674
C         27.27663       -3.75527       84.22391
C         28.14650       -3.36318       85.42306
O         28.08631       -4.06061       86.42669
C         27.58933       -5.18264       83.71605
C         28.85432       -5.29253       82.91008
O         30.03760       -4.93434       83.42933
O         28.80620       -5.69878       81.76001
H         27.75149       -3.03415       82.23510
H         26.22958       -3.80728       84.60161
H         26.74542       -5.50649       83.06685
H         27.62374       -5.88514       84.57804
N         28.92128       -2.23830       85.43113
C         29.60531       -1.75725       86.61858
C         30.79756       -2.57826       87.05172
O         31.32633       -2.26692       88.10702
H         28.96179       -1.63823       84.60398
H         28.86661       -1.69639       87.44731
H         29.98003       -0.72618       86.43371
N         31.31942       -3.59163       86.29594
C         32.50273       -4.36298       86.68266
C         33.74942       -3.48109       86.80442
O         34.72116       -3.91720       87.40693
C         32.23175       -5.17134       87.97805
C         31.02188       -6.13178       87.93011
C         31.18791       -7.31584       87.00143
N         31.16913       -7.17411       85.65692
O         31.30618       -8.43396       87.48024
H         30.88558       -3.81563       85.39479
H         32.74828       -5.09622       85.89001
H         32.06028       -4.46522       88.81576
H         33.13145       -5.76961       88.24044
H         30.08264       -5.58920       87.69140
H         30.91383       -6.53398       88.96164
H         31.02183       -6.25677       85.22523
H         31.27171       -7.99424       85.04080
N         33.81952       -2.25894       86.19517
C         34.97558       -1.36636       86.27612
C         35.62964       -1.14275       84.92131
O         36.55649       -0.34590       84.87045
C         34.56201        0.02602       86.85469
C         33.49296        0.74205       86.00110
C         34.10297       -0.07444       88.31004
H         33.02231       -1.94616       85.62415
H         35.76273       -1.79098       86.93793
H         35.46656        0.67497       86.86394
H         33.30450        1.76014       86.40168
H         33.83370        0.85486       84.94955
H         32.52883        0.19362       86.00583
H         33.88517        0.94027       88.70773
H         33.19119       -0.69074       88.39755
H         34.90598       -0.52370       88.93171
N         35.21808       -1.77467       83.78204
C         35.70148       -1.35491       82.46996
C         36.78433       -2.29823       81.95754
O         36.91313       -3.40864       82.44434
C         34.48096       -1.26030       81.51859
C         34.64858       -0.47792       80.23643
N         33.64612       -0.47022       79.33282
O         35.65185        0.17666       80.01179
H         34.49537       -2.50754       83.82407
H         36.15054       -0.34314       82.56840
H         33.64450       -0.76464       82.05611
H         34.15455       -2.29636       81.27999
H         32.78032       -1.00257       79.49846
H         33.74624        0.05878       78.45763
N         37.63913       -1.85688       80.99035
C         38.70550       -2.64808       80.36529
C         39.55714       -1.76121       79.44142
O         39.25060       -0.59374       79.26816
C         38.09212       -3.86293       79.61692
C         36.94679       -3.47175       78.70416
C         37.15833       -2.69991       77.54878
C         35.63571       -3.87073       79.02634
C         36.07784       -2.31974       76.74612
C         34.55904       -3.48650       78.22538
C         34.77289       -2.70511       77.08840
O         33.71704       -2.32844       76.34067
H         37.52697       -0.88596       80.70344
H         39.39291       -3.01914       81.15532
H         37.70263       -4.55900       80.38968
H         38.86141       -4.43660       79.05789
H         38.15396       -2.38856       77.26515
H         35.43915       -4.46506       79.91019
H         36.25795       -1.72175       75.86294
H         33.55449       -3.78751       78.49592
H         33.81237       -1.76273       75.56358
N         40.66882       -2.26307       78.82172
C         41.50345       -1.44770       77.93675
C         41.42901       -2.01705       76.52689
O         41.83576       -3.15203       76.33663
C         42.94527       -1.31700       78.48292
C         43.72567       -2.63068       78.66086
C         45.09952       -2.35313       79.20307
O         45.24737       -1.75772       80.40232
O         46.08897       -2.66980       78.56187
H         40.91738       -3.25002       78.96855
H         41.13736       -0.40766       77.92126
H         42.88157       -0.81396       79.47402
H         43.51584       -0.65002       77.79891
H         43.83126       -3.15008       77.68753
H         43.19987       -3.30188       79.37123
N         40.86205       -1.34882       75.47521
C         40.25253       -0.02425       75.53506
C         41.30380        1.06526       75.45056
O         42.10264        1.04710       74.52351
C         39.22812        0.14017       74.39291
C         38.47565        1.48147       74.50922
C         37.30113        1.59951       73.58016
O         37.01123        0.70546       72.80036
O         36.51794        2.69187       73.66345
H         40.79295       -1.86452       74.58256
H         39.63489        0.06171       76.45557
H         38.48974       -0.68616       74.49799
H         39.71359        0.05596       73.39543
H         39.17077        2.32842       74.32458
H         38.07631        1.57660       75.54141
N         41.30485        2.09246       76.34586
C         42.21522        3.21895       76.26882
H         42.94247        3.12374       75.43490
H         41.63017        4.15028       76.10827
H         42.77754        3.30940       77.22026
H         40.59597        2.10841       77.09439
Ca        34.56215        2.81614       72.54096
O         31.67310        1.85160       71.62268
H         31.34077        2.75190       71.86676
H         31.63183        1.82988       70.63386
O         34.45317        0.54939       70.52203
H         33.75015       -0.14782       70.51686
H         35.24000        0.11413       70.10814
O         35.11003        0.83978       75.60663
H         34.36018        1.00235       76.22678
H         35.89375        0.72539       76.19923
O         34.43173       -1.04281       73.11537
H         33.81797       -1.81487       73.02825
H         35.25871       -1.42544       73.50270

Ca 1.0



