%chk=apoCaM-CA-Ng.loop2.water4.frame577.chk
%nprocshared=20
%mem=10GB
%nosave
#b3lyp/svp scf=(tight,noincore,xqc) Test 
#IOP(5/87=12) Density=Current Pop=(MK,readradii) iop(6/33=2) iop(6/42=6)

apoCaM-CA-Ng.loop2.water4.frame577 

   -2  1 
C         64.17707       11.55711       90.49535
C         63.41174       12.02333       91.69997
O         63.99736       12.17643       92.76253
H         65.24927       11.40110       90.74070
H         63.75284       10.59353       90.14034
H         64.09916       12.30840       89.68204
N         62.07207       12.24758       91.60452
C         61.24408       12.64075       92.74266
C         61.63932       14.00724       93.27657
O         62.18178       14.80847       92.52750
C         59.76105       12.65793       92.30944
C         58.81588       12.97263       93.43440
O         58.75284       12.16602       94.51075
O         58.09297       13.95444       93.37192
H         61.62257       12.08802       90.68864
H         61.38237       11.87711       93.54007
H         59.48898       11.65924       91.90541
H         59.63267       13.40607       91.49430
N         61.35029       14.35371       94.56807
C         61.60579       15.69009       95.10156
C         63.08919       16.04637       95.03073
O         63.88208       15.13597       94.82903
C         61.06798       15.79430       96.53586
H         60.89491       13.65409       95.17366
H         61.03372       16.36627       94.46042
H         61.60133       15.08127       97.19991
H         61.17533       16.81156       96.95083
H         59.98429       15.54792       96.54822
N         63.59372       17.31764       95.13301
C         62.86143       18.56796       95.37543
C         61.71706       18.83712       94.40581
O         61.69071       18.29381       93.31111
C         63.83455       19.77898       95.41186
C         64.61166       20.00786       94.13037
O         65.44377       19.06748       93.64475
O         64.54202       21.08183       93.55773
H         64.61822       17.38184       95.05484
H         62.41150       18.49140       96.38393
H         64.57321       19.61821       96.22481
H         63.26110       20.70066       95.65586
N         60.69188       19.65598       94.79184
C         59.49530       19.88267       93.99111
C         58.64713       18.62987       93.87455
O         58.98595       17.62560       94.48093
H         60.74629       20.12468       95.70914
H         59.78761       20.26520       93.00353
H         58.86666       20.65281       94.48801
N         57.48347       18.58779       93.16874
C         56.91686       19.68671       92.39422
C         57.72904       19.96875       91.13999
O         57.86762       21.13038       90.78349
C         55.44851       19.33784       92.03203
C         54.69002       20.46075       91.35634
N         54.95845       20.82914       90.08148
O         53.79302       21.02509       91.96548
H         56.94642       17.70542       93.21431
H         56.85582       20.59804       93.03054
H         54.93176       19.12165       92.99485
H         55.38655       18.42090       91.40679
H         55.67479       20.34381       89.52482
H         54.42334       21.58881       89.63504
N         58.22220       18.94885       90.37617
C         58.78973       19.13002       89.04492
C         60.01107       20.02116       88.91759
O         60.40283       20.25485       87.78464
H         58.10782       17.97937       90.70836
H         57.99630       19.57336       88.40603
H         59.04721       18.13546       88.61992
N         60.64145       20.59520       89.97897
C         61.72720       21.55795       89.81009
C         62.96477       20.90283       89.17836
O         63.64776       20.12815       89.82605
C         62.01537       22.31103       91.15029
C         60.85173       23.25804       91.48242
O         62.17326       21.44379       92.24669
H         60.30227       20.39191       90.92190
H         61.37407       22.33956       89.10113
H         62.92313       22.94451       91.04336
H         62.62840       20.61940       91.94915
H         60.72585       24.01454       90.67824
H         59.89928       22.70007       91.59796
H         61.05327       23.79727       92.43264
N         63.27949       21.18361       87.87763
C         64.39467       20.62223       87.10221
C         65.59848       21.55021       87.16897
O         65.44514       22.73522       86.90751
C         63.93005       20.42921       85.61563
C         65.11115       20.27153       84.61515
C         62.97098       19.22664       85.53823
C         64.65797       20.17840       83.15556
H         62.63757       21.81156       87.37078
H         64.70154       19.62730       87.49149
H         63.38983       21.34936       85.29791
H         65.74043       19.39530       84.87300
H         65.74835       21.18060       84.66733
H         62.52562       19.12063       84.52963
H         63.51293       18.29132       85.78750
H         62.13392       19.33961       86.25001
H         64.01494       21.04773       82.89542
H         65.54568       20.18839       82.48929
H         64.10323       19.23886       82.96407
N         66.84831       21.04820       87.43419
C         68.06116       21.85298       87.44401
C         69.12140       21.40136       86.42257
O         70.06633       22.15909       86.24714
C         68.73243       21.82103       88.83499
C         67.85689       22.22424       89.99451
O         68.07565       23.28407       90.55906
O         66.92876       21.39144       90.52224
H         66.95250       20.05232       87.62706
H         67.79830       22.90582       87.20266
H         69.59240       22.52719       88.79155
H         69.14827       20.81541       89.04932
N         69.11959       20.18165       85.79018
C         70.23968       19.75377       84.93757
C         70.25001       18.23820       84.73272
O         70.11303       17.78802       83.60521
C         70.23779       20.53899       83.59439
C         71.42717       20.21023       82.70587
C         71.23452       19.75983       81.38461
C         72.74228       20.36120       83.18472
C         72.33385       19.47051       80.56637
C         73.83581       20.05970       82.36719
C         73.63271       19.61777       81.05863
H         68.36887       19.50686       85.98840
H         71.18871       19.97642       85.46846
H         70.27762       21.62601       83.80468
H         69.28442       20.33801       83.05585
H         70.23680       19.63911       80.98157
H         72.92721       20.70677       84.19232
H         72.18083       19.13247       79.54900
H         74.84252       20.17185       82.74878
H         74.48241       19.39164       80.42638
N         70.47402       17.37325       85.77216
C         70.57262       15.92860       85.61584
C         69.23428       15.24434       85.37651
O         69.25157       14.03688       85.17737
C         71.24034       15.47266       86.92048
C         70.70232       16.47677       87.91640
C         70.78752       17.77979       87.12518
H         71.24745       15.66423       84.77095
H         71.10259       14.40167       87.18576
H         72.33410       15.66923       86.83984
H         69.62860       16.23307       88.07993
H         71.21972       16.50334       88.89933
H         70.07981       18.52020       87.54055
H         71.81911       18.19816       87.13085
N         68.04384       15.91721       85.35572
C         66.80324       15.25134       84.97033
C         66.74743       15.08422       83.45325
O         65.90841       14.32973       82.98137
C         65.51971       15.98970       85.42978
C         65.24285       16.01783       86.95313
C         65.99900       17.05040       87.74038
O         65.68482       17.27849       89.03003
O         66.79407       17.78613       87.19558
H         68.03953       16.92974       85.50448
H         66.78260       14.24262       85.44040
H         64.66775       15.41762       85.00045
H         65.46900       17.01262       84.99733
H         65.37072       15.00544       87.38979
H         64.17508       16.30378       87.07266
N         67.57809       15.78588       82.62688
C         67.56920       15.68273       81.18378
H         68.58159       15.38736       80.83621
H         66.83503       14.93788       80.81590
H         67.32145       16.67448       80.74887
H         68.24332       16.45636       83.02131
Ca        66.25607       19.32364       89.84848
O         68.31891       19.44375       92.84527
H         68.85958       20.26605       92.73604
H         68.19956       19.35026       93.82313
O         64.31599       17.11840       91.72533
H         63.92518       16.35364       91.23410
H         63.58876       17.78601       91.76793
O         68.92792       18.03715       90.03446
H         69.04206       18.93708       90.42626
H         68.51794       18.20946       89.15134
O         67.06299       16.18492       91.79923
H         67.51651       15.61681       91.12727
H         66.47024       15.56223       92.29085

Ca 1.0



