%chk=apoCaM-CA-Ng.loop2.water2.frame858.chk
%nprocshared=20
%mem=10GB
%nosave
#b3lyp/svp scf=(tight,noincore,xqc) Test 
#IOP(5/87=12) Density=Current Pop=(MK,readradii) iop(6/33=2) iop(6/42=6)

apoCaM-CA-Ng.loop2.water2.frame858 

   -2  1 
C         58.50759       50.87698       83.46553
C         57.79515       51.12557       82.16924
O         56.93486       50.33338       81.81059
H         59.25889       51.66696       83.67498
H         57.76784       50.86717       84.29398
H         59.02291       49.89498       83.42647
N         58.09072       52.22017       81.40875
C         57.41499       52.50892       80.14570
C         55.92261       52.83669       80.33629
O         55.23082       52.98359       79.33960
C         58.16308       53.64309       79.40745
C         57.68677       53.83547       77.99396
O         57.76485       52.91981       77.18945
O         57.19606       55.02575       77.60114
H         58.84552       52.84844       81.72684
H         57.50250       51.59549       79.51448
H         59.24348       53.38201       79.34962
H         58.06726       54.59087       79.98012
N         55.35134       52.91741       81.57897
C         53.92198       53.08471       81.82545
C         53.69889       54.23614       82.80430
O         54.30358       54.19675       83.86691
C         53.39970       51.77912       82.43230
H         55.93588       52.79489       82.41491
H         53.37361       53.23685       80.87652
H         53.93524       51.53758       83.37546
H         52.31363       51.84595       82.64485
H         53.56591       50.94714       81.71364
N         52.88525       55.31148       82.56580
C         52.04012       55.49259       81.38460
C         51.57476       56.93975       81.22334
O         51.81686       57.77332       82.08582
C         50.81578       54.53729       81.42609
C         49.93216       54.81303       82.61092
O         48.76244       55.12474       82.46115
O         50.44218       54.70537       83.84588
H         52.88215       56.04580       83.29131
H         52.65985       55.29432       80.48553
H         51.14583       53.48414       81.48768
H         50.22022       54.63943       80.49490
N         50.94849       57.30987       80.07281
C         50.55927       58.67347       79.75501
C         49.14010       58.70659       79.24214
O         48.97153       58.90371       78.04720
H         50.81024       56.59815       79.33847
H         51.22294       59.00079       78.92549
H         50.71108       59.38434       80.59315
N         48.04733       58.49304       80.02523
C         48.06419       58.35323       81.47531
C         48.34959       59.71483       82.09824
O         47.64453       60.66115       81.77341
C         46.68162       57.82316       81.92951
C         46.59942       57.35848       83.36033
N         45.42712       56.87387       83.82814
O         47.57880       57.37936       84.08890
H         47.13243       58.45165       79.54652
H         48.81515       57.59025       81.76323
H         46.43386       56.92956       81.31613
H         45.90422       58.59646       81.74419
H         44.59494       56.83378       83.22293
H         45.34504       56.53221       84.79229
N         49.34354       59.88783       83.01507
C         49.65309       61.17669       83.62547
C         49.12125       61.29968       85.04057
O         49.32773       62.34147       85.64641
H         49.87615       59.06676       83.32925
H         49.19033       62.00841       83.05045
H         50.75226       61.33373       83.59715
N         48.35729       60.31892       85.59942
C         47.66059       60.44249       86.87074
C         48.02135       59.30104       87.80598
O         47.85077       58.14397       87.45079
C         46.12980       60.45954       86.61409
C         45.69558       61.75982       85.93740
O         45.73643       59.39209       85.79022
H         48.18176       59.46211       85.06799
H         47.91228       61.39911       87.37944
H         45.58423       60.42085       87.58667
H         45.67981       58.58621       86.35714
H         46.18920       61.87741       84.94988
H         44.59509       61.75068       85.78529
H         45.95138       62.62942       86.57966
N         48.48218       59.57244       89.05896
C         48.68732       58.54763       90.08100
C         47.33382       57.92136       90.40188
O         46.43151       58.63724       90.81442
C         49.36357       59.18777       91.33733
C         49.42528       58.26750       92.58600
C         50.77636       59.69300       90.97118
C         50.23768       56.98892       92.41249
H         48.63506       60.55996       89.31346
H         49.37618       57.76924       89.68937
H         48.75331       60.06517       91.64802
H         48.39263       57.98781       92.88567
H         49.86618       58.84132       93.43050
H         51.25781       60.17468       91.84738
H         51.41977       58.85735       90.62252
H         50.74207       60.44175       90.15411
H         50.20484       56.39993       93.35326
H         49.79708       56.38739       91.60538
H         51.29971       57.20271       92.17901
N         47.12540       56.58570       90.20763
C         45.84361       55.91448       90.42006
C         45.92473       54.87921       91.52521
O         44.92476       54.21350       91.76307
C         45.41397       55.19945       89.12770
C         45.33316       56.14047       87.97406
O         44.46614       57.17039       87.99727
O         46.05693       55.97037       87.00820
H         47.91092       56.00746       89.87796
H         45.05394       56.64698       90.70199
H         44.41484       54.72851       89.26060
H         46.14882       54.39655       88.89513
N         47.05504       54.70352       92.26886
C         47.13415       53.75152       93.36003
C         48.47708       53.02587       93.34706
O         49.48079       53.66878       93.62333
C         46.94510       54.53769       94.67040
C         47.06718       53.68592       95.90537
C         48.06158       53.97664       96.85416
C         46.19352       52.60898       96.12972
C         48.18077       53.20255       98.00933
C         46.31811       51.83480       97.28706
C         47.31012       52.13202       98.22626
H         47.85924       55.32625       92.12999
H         46.30284       53.02140       93.28871
H         45.94096       55.01581       94.66294
H         47.69793       55.35741       94.69995
H         48.74380       54.80432       96.70156
H         45.41767       52.36979       95.41337
H         48.94803       53.43559       98.73589
H         45.64392       51.00589       97.45718
H         47.40395       51.53455       99.12302
N         48.59047       51.68571       93.08321
C         49.81487       50.92069       93.28558
C         50.93300       51.21184       92.29814
O         51.98917       50.61365       92.45572
C         49.33527       49.46612       93.23113
C         48.20367       49.54503       92.23157
C         47.49923       50.83034       92.66321
H         50.22439       51.10622       94.30340
H         50.12156       48.70750       93.02855
H         48.86521       49.22119       94.21147
H         48.66094       49.70871       91.22849
H         47.54298       48.65371       92.18102
H         46.93869       51.23759       91.79324
H         46.82016       50.66869       93.52884
N         50.81924       52.12366       91.29022
C         51.95000       52.45287       90.42195
C         53.10907       53.11079       91.17182
O         54.15601       53.28750       90.56353
C         51.51173       53.35867       89.25550
C         50.99939       54.73910       89.70406
C         50.56880       55.50291       88.49981
O         51.40152       56.10651       87.84199
O         49.38859       55.18599       87.93932
H         49.90993       52.57467       91.12750
H         52.31750       51.50056       89.97726
H         50.71255       52.83427       88.68616
H         52.37512       53.50339       88.56655
H         51.79251       55.30176       90.24325
H         50.12494       54.62080       90.36928
N         52.99682       53.52265       92.46990
C         54.07304       54.15515       93.20476
H         54.99920       54.25876       92.60203
H         53.74907       55.16654       93.52826
H         54.30647       53.54829       94.10453
H         52.11039       53.40847       92.97756
Ca        49.36150       55.28244       85.71671
O         48.22459       52.63214       86.54707
H         47.40182       53.07075       86.88062
H         47.96317       52.24338       85.67482
O         50.82096       57.96744       85.50697
H         50.82558       57.37922       84.71071
H         51.77341       58.19548       85.64801

Ca 1.0



