%chk=apoCaM-CA-Ng.loop1.water6.frame684.chk
%nprocshared=20
%mem=10GB
%nosave
#b3lyp/svp scf=(tight,noincore,xqc) Test 
#IOP(5/87=12) Density=Current Pop=(MK,readradii) iop(6/33=2) iop(6/42=6)

apoCaM-CA-Ng.loop1.water6.frame684 

   0  1 
C         81.63100       39.75234       50.74683
C         80.12949       39.78436       50.80535
O         79.54277       40.80588       50.47958
H         82.05136       40.52949       51.41736
H         82.03007       38.76388       51.06151
H         81.96585       39.94421       49.70577
N         79.43723       38.68121       51.19695
C         77.98000       38.61378       51.23392
C         77.39189       39.61486       52.22853
O         77.75650       39.59642       53.39419
C         77.52659       37.15296       51.52999
C         77.97797       36.64905       52.87532
O         77.47142       37.20053       53.98922
O         78.82302       35.77246       52.96104
H         79.97682       37.83649       51.44265
H         77.59265       38.84138       50.21628
H         77.96230       36.50377       50.73768
H         76.42115       37.06352       51.46230
N         76.44236       40.51229       51.83723
C         75.70657       41.34067       52.79756
C         74.81990       40.46639       53.69646
O         74.36566       40.94661       54.72549
C         74.84982       42.37042       52.02125
C         73.94213       43.30551       52.84232
C         74.68915       44.23846       53.80500
C         73.69319       45.20325       54.47263
N         74.36558       46.11573       55.39572
H         76.19509       40.56278       50.83697
H         76.44830       41.88561       53.42335
H         74.18397       41.80832       51.32989
H         75.53152       42.99483       51.40269
H         73.18836       42.71269       53.40200
H         73.38789       43.93357       52.11089
H         75.44219       44.82901       53.23924
H         75.21054       43.64270       54.58461
H         72.92376       44.62249       55.02902
H         73.17700       45.80013       53.68688
H         73.65597       46.76432       55.80838
H         74.81946       45.57599       56.16761
H         75.08224       46.68160       54.88602
N         74.50073       39.18296       53.34770
C         73.63949       38.30441       54.14692
C         74.31604       37.95564       55.47557
O         75.48274       38.28829       55.62708
C         73.36513       37.01646       53.32641
C         72.69890       37.32901       52.01361
O         73.24820       37.04076       50.96192
O         71.49265       37.92741       51.99257
H         74.85072       38.82143       52.44998
H         72.68189       38.83460       54.33958
H         72.70696       36.31182       53.85142
H         74.33107       36.49478       53.13912
N         73.71318       37.28695       56.50633
C         72.32053       36.87992       56.60941
C         71.40533       38.06494       56.75021
O         71.62788       38.86734       57.64553
H         74.30052       37.06567       57.32623
H         72.20365       36.29756       57.54951
H         72.01688       36.19778       55.80050
N         70.32213       38.22138       55.93540
C         69.38031       39.32790       56.09728
C         68.62394       39.28996       57.42572
O         67.91765       40.25056       57.70328
C         68.37054       39.39924       54.92845
C         67.39490       38.24852       54.89644
O         67.82465       36.98407       54.72825
O         66.19827       38.46286       55.00972
H         70.18597       37.54525       55.17039
H         69.97675       40.26742       56.06391
H         68.92070       39.44467       53.96475
H         67.79405       40.34718       55.02605
N         68.70168       38.23470       58.29633
C         67.99164       38.22559       59.56690
C         68.47304       39.29865       60.52359
O         67.83116       39.48014       61.54904
H         69.25104       37.39812       58.05835
H         68.11029       37.24035       60.06790
H         66.90960       38.37655       59.36101
N         69.58609       40.04650       60.26523
C         70.03466       41.14759       61.10267
C         71.40517       40.86524       61.69425
O         72.01957       39.85430       61.37878
C         70.01612       42.46996       60.28128
C         70.96370       42.45409       59.07086
O         68.71589       42.72300       59.81509
H         70.15014       39.83896       59.43462
H         69.34323       41.27859       61.96436
H         70.34022       43.31720       60.92738
H         68.17232       42.98797       60.60214
H         72.00710       42.24919       59.38043
H         70.66254       41.69096       58.32522
H         70.93869       43.44221       58.56453
N         71.92402       41.73476       62.60132
C         73.22411       41.59026       63.24728
C         73.03451       41.35836       64.73991
O         73.68783       40.48452       65.28954
C         74.09702       42.85712       62.98152
C         74.27387       43.06394       61.45400
C         75.46525       42.73040       63.68598
C         75.10506       44.28902       61.06816
H         71.35530       42.55859       62.84644
H         73.78110       40.71622       62.83876
H         73.57853       43.74905       63.40071
H         73.27213       43.20803       61.00386
H         74.73999       42.16249       60.99918
H         76.02978       41.85882       63.29168
H         76.07284       43.64754       63.55393
H         75.33870       42.60994       64.78167
H         75.11822       44.38677       59.96176
H         74.66423       45.21062       61.50244
H         76.15773       44.18482       61.40026
N         72.14937       42.10778       65.45382
C         71.99465       42.04163       66.90238
C         72.09026       43.46015       67.45412
O         72.32041       44.38332       66.68553
C         70.67117       41.32017       67.27495
C         69.40794       42.00749       66.75045
O         70.72122       40.00518       66.78062
H         71.55104       42.78049       64.95774
H         72.81013       41.44161       67.36259
H         70.60848       41.28294       68.38703
H         70.15826       39.44410       67.37693
H         69.39910       42.02418       65.64117
H         68.51530       41.44152       67.09511
H         69.33418       43.04314       67.14130
N         71.88641       43.71592       68.77624
C         71.90840       45.06743       69.32023
C         72.82812       45.12529       70.52305
O         73.78128       45.89354       70.50360
C         70.45725       45.52402       69.62435
C         70.39922       46.96722       70.12810
O         69.82971       44.68632       70.56109
H         71.64909       42.93895       69.40657
H         72.29395       45.78771       68.56417
H         69.88677       45.50773       68.66343
H         69.34019       43.98805       70.05207
H         70.85649       47.65331       69.38343
H         69.34027       47.26769       70.27717
H         70.93535       47.06971       71.09494
N         72.58117       44.35646       71.61825
C         73.34708       44.42057       72.85109
C         73.88127       43.03892       73.16767
O         73.10365       42.09225       73.16577
C         72.41091       44.95347       73.94791
C         73.15356       45.33773       75.23314
C         72.18273       45.99326       76.22420
C         72.91530       46.53150       77.45795
N         71.97734       47.17828       78.37560
H         71.77235       43.71767       71.60669
H         74.18816       45.14329       72.75575
H         71.59728       44.22386       74.15748
H         71.94371       45.88470       73.55437
H         73.94502       46.07514       74.97223
H         73.63269       44.44611       75.69264
H         71.41159       45.25337       76.53166
H         71.67518       46.84893       75.72553
H         73.67742       47.27627       77.13500
H         73.43476       45.69949       77.98179
H         71.48972       47.96953       77.89473
H         71.27154       46.48523       78.71500
H         72.50442       47.55719       79.19498
N         75.19750       42.83840       73.45541
C         75.73924       41.50301       73.68274
C         75.76605       40.70381       72.38259
O         75.12141       39.66531       72.35567
C         77.11756       41.52604       74.38303
C         76.99668       42.08304       75.81205
C         78.31351       42.03836       76.52999
O         78.44703       41.29799       77.64749
O         79.26472       42.67969       76.11351
H         75.81770       43.65873       73.53788
H         75.07126       40.96655       74.39669
H         77.86927       42.10601       73.81408
H         77.48597       40.47855       74.46188
H         76.26376       41.46624       76.37862
H         76.63026       43.13104       75.79374
N         76.45274       41.06236       71.25432
C         77.24191       42.26272       71.06310
H         78.29136       41.97928       70.83655
H         76.83469       42.83177       70.20145
H         77.24208       42.94017       71.92811
H         76.40423       40.42682       70.44243
Ca        78.55852       37.20408       55.95122
O         76.71983       39.08273       58.41294
H         76.95583       38.49550       59.17429
H         77.08843       39.96808       58.65945
O         80.83887       39.34020       54.75204
H         81.58854       38.88161       55.20818
H         81.01866       40.30420       54.88922
O         79.89321       39.24528       58.19877
H         79.82250       38.46914       58.80978
H         80.86415       39.34340       58.03203
O         77.89988       41.07487       56.09383
H         77.76505       42.05244       56.17282
H         76.99675       40.71576       55.90598
O         81.14359       36.18550       56.78486
H         81.55243       37.04258       57.06416
H         80.59226       35.91023       57.56012
O         77.54265       35.66293       58.10845
H         77.77463       35.03982       57.37405
H         76.66921       36.04508       57.84065

Ca 1.0



