%chk=apoCaM-CA-Ng.loop4.water7.frame900.chk
%nprocshared=20
%mem=10GB
%nosave
#b3lyp/svp scf=(tight,noincore,xqc) Test 
#IOP(5/87=12) Density=Current Pop=(MK,readradii) iop(6/33=2) iop(6/42=6)

apoCaM-CA-Ng.loop4.water7.frame900 

   -3  1 
C        -22.83715        6.22725       41.50085
C        -23.98013        5.25683       41.43306
O        -23.77842        4.11536       41.04600
H        -21.89305        5.75590       41.15426
H        -23.05430        7.10519       40.85635
H        -22.70299        6.57372       42.54707
N        -25.22585        5.65829       41.80904
C        -26.41780        4.81768       41.77551
C        -26.25079        3.61736       42.70082
O        -26.40757        2.47871       42.28056
C        -26.77343        4.45577       40.31233
C        -28.11251        3.78141       40.15319
O        -28.49560        3.46991       39.03725
O        -28.90473        3.53231       41.21497
H        -25.34196        6.62692       42.14609
H        -27.25817        5.42827       42.17592
H        -25.98775        3.80314       39.87672
H        -26.80779        5.39637       39.71970
N        -25.90329        3.82772       43.99976
C        -25.72019        2.75060       44.97184
C        -27.04968        2.06862       45.30385
O        -28.06473        2.75066       45.31142
C        -25.04290        3.26908       46.28595
C        -25.88408        4.36500       47.00735
C        -23.61036        3.74708       45.97747
C        -25.30021        4.81584       48.34636
H        -25.72311        4.80054       44.28121
H        -25.02759        2.01087       44.51646
H        -24.94828        2.40527       46.98023
H        -26.89613        3.96497       47.22213
H        -25.99945        5.26729       46.37379
H        -23.03515        2.93055       45.49064
H        -23.61172        4.62969       45.30489
H        -23.06429        4.00691       46.90606
H        -25.19675        3.95091       49.03412
H        -24.31652        5.30947       48.21392
H        -25.98359        5.55944       48.80925
N        -27.14455        0.75326       45.67348
C        -26.03486       -0.19349       45.62976
C        -25.85590       -0.73887       44.22739
O        -24.80126       -1.29340       43.94818
C        -26.26232       -1.37304       46.59350
C        -26.40667       -0.90870       48.01433
O        -25.49683       -0.30572       48.56114
O        -27.53955       -1.16589       48.69506
H        -28.07473        0.39356       45.94171
H        -25.10145        0.31411       45.95020
H        -25.39935       -2.07326       46.54057
H        -27.17730       -1.92924       46.29070
N        -26.85295       -0.64978       43.29686
C        -26.70371       -1.12899       41.93927
C        -26.46823       -2.61680       41.84677
O        -26.49552       -3.32864       42.84185
H        -27.75248       -0.20920       43.53640
H        -25.84845       -0.59613       41.47207
H        -27.62086       -0.89338       41.35576
N        -26.20174       -3.13769       40.62280
C        -25.92146       -4.54168       40.36478
C        -24.79866       -5.07414       41.24371
O        -25.02413       -6.06790       41.92149
C        -25.69152       -4.78391       38.84173
C        -24.57921       -4.01449       38.16126
O        -24.53887       -2.79539       38.19819
O        -23.68541       -4.67075       37.39774
H        -26.20440       -2.47936       39.83215
H        -26.83028       -5.13186       40.62102
H        -26.62970       -4.49726       38.32220
H        -25.53121       -5.87059       38.66483
N        -23.56983       -4.48902       41.27932
C        -22.44094       -5.07199       41.99682
C        -21.44027       -5.65922       41.02071
O        -20.46700       -6.25648       41.45752
H        -23.40251       -3.64207       40.71505
H        -22.76981       -5.90655       42.65244
H        -21.96726       -4.30531       42.64788
N        -21.63249       -5.53799       39.67319
C        -20.80773       -6.11403       38.62917
C        -19.40624       -5.53578       38.58615
O        -18.61959       -5.99107       37.76796
C        -20.91948       -7.65473       38.62574
C        -22.40387       -8.05425       38.42831
C        -22.58877       -9.50490       38.07238
N        -23.38756      -10.31012       38.81019
O        -22.04629       -9.94803       37.07090
H        -22.43386       -5.01505       39.33067
H        -21.23398       -5.80558       37.64786
H        -20.50655       -8.11564       39.54871
H        -20.33525       -8.02671       37.75639
H        -22.82781       -7.47833       37.57734
H        -22.98796       -7.78954       39.33808
H        -23.87743       -9.95490       39.64375
H        -23.53426      -11.29190       38.53114
N        -19.06401       -4.44661       39.33870
C        -17.79607       -3.74390       39.20381
C        -17.99664       -2.30578       38.72692
O        -16.98608       -1.65401       38.49784
C        -17.00695       -3.76665       40.54539
C        -17.75512       -3.06240       41.69414
C        -16.65853       -5.20405       40.95258
H        -19.74167       -4.05118       40.00033
H        -17.16570       -4.23778       38.43186
H        -16.04622       -3.22704       40.38871
H        -17.98402       -2.00914       41.42858
H        -18.70291       -3.58288       41.94438
H        -17.12367       -3.05048       42.60757
H        -17.57744       -5.79928       41.13904
H        -16.06870       -5.69553       40.15003
H        -16.04504       -5.20036       41.87890
N        -19.23308       -1.72054       38.59232
C        -19.39894       -0.30772       38.24422
C        -20.32762       -0.15544       37.03575
O        -20.95738       -1.13035       36.64431
C        -19.91175        0.42303       39.51011
C        -19.48482        1.87167       39.62878
N        -18.67607        2.25939       40.64527
O        -19.86338        2.70419       38.82459
H        -20.08692       -2.25087       38.81548
H        -18.40410        0.11042       37.97969
H        -19.45714       -0.09120       40.38492
H        -21.01158        0.29818       39.61598
H        -18.33783        1.58427       41.34708
H        -18.38223        3.24288       40.73437
N        -20.40888        1.01969       36.34652
C        -21.19602        1.16084       35.11510
C        -20.67962        2.29481       34.24172
O        -19.81969        3.04942       34.67852
C        -22.71540        1.32090       35.39639
C        -23.07814        2.66614       35.99983
C        -22.61739        3.03229       37.27178
C        -23.88435        3.57300       35.28509
C        -22.92487        4.28526       37.80958
C        -24.20508        4.82107       35.83016
C        -23.72042        5.18516       37.08915
O        -24.02635        6.39613       37.59563
H        -19.78313        1.77972       36.63981
H        -21.03196        0.23716       34.51614
H        -23.07950        0.50137       36.05142
H        -23.24682        1.21390       34.42598
H        -22.02160        2.34586       37.84619
H        -24.26263        3.32017       34.30277
H        -22.54445        4.55424       38.78533
H        -24.82619        5.50902       35.27035
H        -23.70393        6.68851       38.45977
N        -21.12775        2.43978       32.95919
C        -20.59566        3.45636       32.06234
C        -21.72444        4.33280       31.52942
O        -22.39474        3.91204       30.59672
C        -19.78752        2.79856       30.92584
C        -18.61263        1.97820       31.48992
C        -17.78156        1.37589       30.39711
O        -18.27573        0.58251       29.61213
O        -16.47673        1.69262       30.29222
H        -21.82659        1.77739       32.58863
H        -19.86433        4.07997       32.59492
H        -19.38356        3.59669       30.26389
H        -20.44713        2.13572       30.32316
H        -18.99298        1.15626       32.13418
H        -17.96838        2.63958       32.11015
N        -22.06723        5.53435       32.09106
C        -21.44373        6.07463       33.29723
C        -19.99704        6.47847       33.07988
O        -19.54372        6.55113       31.94475
C        -22.25325        7.25548       33.87986
C        -22.27554        8.51407       32.99440
C        -23.06957        9.59404       33.66923
O        -22.54023       10.65135       33.97213
O        -24.36734        9.38848       33.96308
H        -22.87939        6.02796       31.68933
H        -21.47690        5.26496       34.05928
H        -21.82147        7.52869       34.86762
H        -23.29592        6.91387       34.05208
H        -22.73730        8.29743       32.00914
H        -21.23723        8.87351       32.82577
N        -19.19846        6.71536       34.15490
C        -17.80138        7.05743       34.01640
H        -17.26840        6.25461       33.46261
H        -17.69925        8.01870       33.47125
H        -17.33811        7.16035       35.02059
H        -19.58655        6.61859       35.10560
Ca       -25.54670       10.92686       35.12138
O        -24.99158       12.69171       32.87316
H        -25.68661       13.19088       32.37569
H        -24.36883       12.36433       32.17671
O        -26.55257       11.11613       38.14674
H        -26.39738       10.16318       38.36602
H        -25.90799       11.61023       38.71316
O        -26.85364        8.19131       35.23383
H        -27.47645        7.51513       35.60002
H        -26.75542        7.94899       34.27869
O        -28.37694       11.11639       34.11560
H        -28.61816       11.12010       33.15550
H        -28.91687       10.38443       34.50673
O        -23.92098        9.43454       37.14757
H        -23.18793        9.02623       36.62256
H        -23.68088        9.25840       38.09141
O        -23.64921       12.95662       36.43715
H        -22.87609       12.36563       36.25456
H        -23.74307       12.94472       37.42267
O        -27.01148       13.47604       35.84271
H        -27.32407       13.56803       36.77756
H        -27.39408       14.25870       35.37272

Ca 1.0



