%chk=apoCaM-CA-Ng.loop4.water5.frame929.chk
%nprocshared=20
%mem=10GB
%nosave
#b3lyp/svp scf=(tight,noincore,xqc) Test 
#IOP(5/87=12) Density=Current Pop=(MK,readradii) iop(6/33=2) iop(6/42=6)

apoCaM-CA-Ng.loop4.water5.frame929 

   -3  1 
C        -19.36493      -14.99664        1.23693
C        -20.56567      -15.49421        1.98501
O        -21.68291      -15.24720        1.55834
H        -18.74531      -15.86015        0.91509
H        -19.66838      -14.42454        0.33475
H        -18.76055      -14.33752        1.89482
N        -20.39945      -16.24994        3.10509
C        -21.49151      -16.81112        3.89562
C        -22.43443      -17.61267        3.00989
O        -23.64322      -17.42560        3.06628
C        -22.22800      -15.71372        4.69697
C        -21.29555      -14.96986        5.61342
O        -21.15660      -13.76255        5.50309
O        -20.62203      -15.63020        6.57456
H        -19.43699      -16.48305        3.39527
H        -21.04266      -17.51691        4.62980
H        -23.02030      -16.17938        5.32168
H        -22.71705      -15.00245        3.99981
N        -21.92156      -18.50022        2.11578
C        -22.74848      -19.27839        1.20114
C        -23.29178      -20.48380        1.96706
O        -22.50757      -21.09972        2.67550
C        -21.92782      -19.66740       -0.06771
C        -21.50922      -18.36427       -0.81412
C        -22.74900      -20.58234       -0.99730
C        -20.67476      -18.58850       -2.07451
H        -20.89563      -18.59254        2.05338
H        -23.55727      -18.62125        0.83073
H        -21.02016      -20.22970        0.24410
H        -20.90467      -17.72639       -0.13570
H        -22.41712      -17.78711       -1.10049
H        -23.65716      -20.06236       -1.36795
H        -22.14941      -20.91096       -1.86842
H        -23.04547      -21.50871       -0.46663
H        -20.39579      -17.60303       -2.50504
H        -19.74902      -19.14870       -1.83028
H        -21.25112      -19.13201       -2.85016
N        -24.59386      -20.90642        1.92519
C        -25.62573      -20.42069        1.01074
C        -26.73765      -19.73893        1.79636
O        -26.72799      -19.79393        3.01977
C        -26.13337      -21.64804        0.20750
C        -26.85916      -21.38334       -1.08739
O        -26.91743      -20.15580       -1.63427
O        -27.31706      -22.32791       -1.70985
H        -24.85833      -21.68670        2.54885
H        -25.20681      -19.69280        0.30402
H        -26.76270      -22.27059        0.88132
H        -25.26018      -22.26894       -0.08739
N        -27.71740      -19.03938        1.16241
C        -28.78677      -18.38398        1.88693
C        -29.69583      -17.63475        0.94281
O        -30.28731      -18.25201        0.06752
H        -27.69261      -18.94341        0.14324
H        -28.34747      -17.68295        2.62931
H        -29.38371      -19.14566        2.43425
N        -29.87884      -16.29267        1.08906
C        -30.82055      -15.53128        0.27517
C        -30.44570      -15.42904       -1.20122
O        -31.29140      -14.97839       -1.96013
C        -31.05875      -14.12187        0.87435
C        -29.85601      -13.20907        0.83845
O        -28.71450      -13.53913        1.47203
O        -29.92560      -12.13723        0.25892
H        -29.39796      -15.82625        1.87074
H        -31.79498      -16.06622        0.33780
H        -31.38308      -14.23305        1.93110
H        -31.89173      -13.63530        0.31962
N        -29.22418      -15.79546       -1.69806
C        -28.89311      -15.66412       -3.11584
C        -28.85379      -14.22129       -3.61549
O        -28.71673      -14.02720       -4.81388
H        -28.50788      -16.18769       -1.07025
H        -29.64679      -16.23425       -3.70151
H        -27.89733      -16.11716       -3.31377
N        -28.94622      -13.16509       -2.75741
C        -28.95423      -11.75175       -3.12682
C        -27.66653      -11.32037       -3.80758
O        -27.71166      -10.58980       -4.78951
C        -30.21929      -11.36760       -3.93116
C        -31.50650      -11.65155       -3.14474
C        -32.72756      -11.22434       -3.91739
N        -33.68271      -12.12195       -4.25655
O        -32.86224      -10.05102       -4.23180
H        -28.99871      -13.35577       -1.75180
H        -28.98253      -11.17245       -2.17692
H        -30.24123      -11.91764       -4.89711
H        -30.18308      -10.27767       -4.15117
H        -31.48621      -11.09902       -2.18077
H        -31.56622      -12.73310       -2.92342
H        -33.59384      -13.11546       -3.99787
H        -34.51904      -11.82186       -4.77916
N        -26.46575      -11.72399       -3.30951
C        -25.18018      -11.25261       -3.81770
C        -24.24702      -10.79769       -2.69242
O        -23.13784      -10.39542       -3.01161
C        -24.47966      -12.36686       -4.65468
C        -24.21435      -13.64877       -3.84588
C        -25.28371      -12.70139       -5.91788
H        -26.47179      -12.42609       -2.55484
H        -25.32568      -10.37868       -4.49162
H        -23.49747      -11.97382       -5.00139
H        -23.58872      -13.42948       -2.95691
H        -25.16395      -14.11775       -3.51304
H        -23.66529      -14.38493       -4.47082
H        -26.27703      -13.12210       -5.66079
H        -25.42661      -11.78685       -6.53243
H        -24.73349      -13.44425       -6.53453
N        -24.57520      -10.91383       -1.36586
C        -23.58013      -10.79316       -0.30568
C        -24.00718       -9.82778        0.80139
O        -25.11573       -9.31532        0.78673
C        -23.39210      -12.22748        0.24762
C        -22.26577      -12.36928        1.22680
N        -22.51083      -12.72910        2.50688
O        -21.11990      -12.14910        0.86352
H        -25.50663      -11.24166       -1.08208
H        -22.61150      -10.43906       -0.71922
H        -23.17104      -12.92120       -0.59222
H        -24.35010      -12.55657        0.70805
H        -23.47083      -12.91210        2.83243
H        -21.73668      -12.82431        3.17654
N        -23.13997       -9.58197        1.82607
C        -23.42073       -8.81819        3.03112
C        -22.34742       -7.76524        3.20678
O        -21.17805       -8.10404        3.08577
C        -23.33156       -9.78341        4.23713
C        -23.56314       -9.07587        5.55332
C        -24.82593       -8.54643        5.86436
C        -22.51274       -8.93404        6.47765
C        -25.03558       -7.88880        7.08046
C        -22.72217       -8.26739        7.68821
C        -23.98241       -7.74496        7.99568
O        -24.16942       -7.10956        9.17011
H        -22.20403       -9.99992        1.78034
H        -24.43698       -8.36773        3.01336
H        -22.32145      -10.24964        4.23775
H        -24.06988      -10.60779        4.13393
H        -25.64921       -8.64938        5.16880
H        -21.52772       -9.32738        6.25816
H        -26.01617       -7.49114        7.30965
H        -21.90331       -8.15656        8.38796
H        -25.02635       -6.73770        9.42350
N        -22.65588       -6.50267        3.61613
C        -21.61708       -5.53582        3.94628
C        -21.62296       -5.31310        5.44724
O        -22.59692       -4.75824        5.93706
C        -21.83236       -4.20754        3.19870
C        -21.79723       -4.38473        1.67649
C        -21.99233       -3.06382        0.98912
O        -23.12694       -2.36277        1.17967
O        -21.12687       -2.62105        0.25117
H        -23.64207       -6.25280        3.78583
H        -20.63666       -5.92075        3.63856
H        -21.02766       -3.49804        3.49590
H        -22.81289       -3.77118        3.49371
H        -22.60628       -5.07413        1.35304
H        -20.81830       -4.82197        1.38016
N        -20.62582       -5.73346        6.28654
C        -19.43758       -6.50742        5.91630
C        -18.51112       -5.72111        5.00742
O        -18.08618       -4.63555        5.37824
C        -18.67691       -6.91904        7.20150
C        -17.40028       -7.74836        6.96838
C        -17.64952       -9.07636        6.31261
O        -17.00858       -9.38740        5.16934
O        -18.37665       -9.90094        6.84351
H        -20.76408       -5.53150        7.29039
H        -19.76587       -7.44547        5.41741
H        -19.36228       -7.50098        7.85663
H        -18.38266       -5.99933        7.75400
H        -16.93022       -7.94348        7.95611
H        -16.67414       -7.16519        6.36246
N        -18.13239       -6.24457        3.80591
C        -17.22879       -5.58339        2.88815
H        -16.34056       -6.22938        2.72306
H        -17.74288       -5.42628        1.91702
H        -16.88213       -4.60034        3.26874
H        -18.49140       -7.16929        3.52345
Ca       -17.07902      -11.49162        4.34509
O        -17.83890      -13.49486        6.71580
H        -18.64043      -13.07239        6.31708
H        -17.57403      -12.88059        7.44574
O        -16.99293      -11.45766        1.26594
H        -17.80255      -11.26415        0.73008
H        -16.57194      -12.23094        0.81308
O        -19.72084      -11.24402        3.30104
H        -19.97537      -11.15042        4.25326
H        -19.78390      -10.32842        2.93258
O        -14.49361      -10.21455        3.05919
H        -14.95933       -9.65735        2.38608
H        -14.02403       -9.56318        3.63838
O        -14.93631      -11.16875        6.72984
H        -15.06442      -10.61235        7.53881
H        -14.27290      -10.67110        6.18883

Ca 1.0



