%chk=apoCaM-CA-Ng.loop3.water4.frame187.chk
%nprocshared=20
%mem=10GB
%nosave
#b3lyp/svp scf=(tight,noincore,xqc) Test 
#IOP(5/87=12) Density=Current Pop=(MK,readradii) iop(6/33=2) iop(6/42=6)

apoCaM-CA-Ng.loop3.water4.frame187 

   0  1 
C         77.16634       20.95620       13.15022
C         76.26686       19.92014       12.54821
O         75.06379       20.12093       12.53537
H         77.89230       21.31385       12.39210
H         76.57509       21.82189       13.52101
H         77.71453       20.51197       14.00792
N         76.79000       18.76401       12.04331
C         75.99856       17.66610       11.48166
C         75.15413       16.94276       12.53784
O         74.42745       16.02819       12.17546
C         75.14971       18.13659       10.27290
C         75.97641       18.73267        9.15950
O         75.42476       19.09600        8.13428
O         77.31468       18.85740        9.26421
H         77.81485       18.64858       12.05815
H         76.70118       16.89584       11.09268
H         74.38280       18.87439       10.58469
H         74.61241       17.25985        9.85178
N         75.23989       17.25832       13.86381
C         74.49665       16.59926       14.93595
C         73.57905       17.58472       15.66169
O         72.96360       17.20383       16.64774
C         75.49395       15.93106       15.91929
C         76.50439       16.90087       16.56911
C         77.41555       16.16737       17.56498
C         78.45687       17.08808       18.22977
N         79.43549       17.61443       17.27414
H         75.87634       18.00814       14.15383
H         73.84823       15.79055       14.53328
H         76.06318       15.15140       15.36640
H         74.91313       15.41937       16.71788
H         75.96237       17.71015       17.10454
H         77.13566       17.34669       15.77804
H         77.94499       15.33322       17.05484
H         76.77783       15.73524       18.36677
H         79.00042       16.49101       18.99523
H         77.94780       17.92841       18.75162
H         80.16124       18.15673       17.79623
H         79.90597       16.82826       16.76934
H         78.98353       18.25988       16.58914
N         73.43486       18.86756       15.22250
C         72.64443       19.89205       15.88903
C         71.17780       19.48671       15.96467
O         70.60888       19.07720       14.96289
C         72.83523       21.23710       15.14906
C         72.33632       22.41067       15.94337
O         73.20056       23.36216       16.34447
O         71.15660       22.51855       16.22265
H         73.92937       19.15156       14.37387
H         73.06182       20.03323       16.91134
H         72.35848       21.20706       14.14476
H         73.92666       21.39990       15.00235
N         70.50891       19.59647       17.14460
C         69.12613       19.20002       17.37082
C         68.12311       19.85119       16.43862
O         67.30086       19.14062       15.87828
H         71.01633       19.98680       17.95186
H         68.85925       19.48991       18.41085
H         69.03598       18.09489       17.29877
N         68.13061       21.19516       16.22354
C         67.14907       21.89200       15.38847
C         67.68702       22.23551       14.00475
O         66.98015       22.88773       13.24719
C         66.62216       23.15866       16.10356
C         67.67767       24.22949       16.29062
N         67.59302       25.40314       15.62175
O         68.61485       24.04050       17.05028
H         68.89387       21.73191       16.64697
H         66.26818       21.23567       15.21210
H         66.18019       22.89286       17.08771
H         65.79839       23.57184       15.48071
H         66.81800       25.59028       14.97003
H         68.31829       26.12406       15.74060
N         68.89526       21.78308       13.57518
C         69.41822       22.05641       12.25235
C         69.82530       23.49732       12.10788
O         69.39396       24.15761       11.17402
H         69.46261       21.18104       14.18362
H         68.68892       21.74644       11.47065
H         70.34109       21.45350       12.10754
N         70.72281       24.02256       12.98601
C         71.35305       25.32298       12.82816
C         71.09922       26.23277       14.00163
O         71.41294       25.86486       15.12574
C         72.87733       25.11961       12.72130
C         73.25118       24.37199       11.47305
C         72.98490       24.94265       10.21872
C         73.87572       23.11673       11.54241
C         73.33435       24.27001        9.04953
C         74.22561       22.44468       10.36642
C         73.95569       23.02180        9.11711
O         74.29107       22.39097        7.97585
H         71.03757       23.43364       13.76869
H         70.99462       25.83271       11.90938
H         73.23467       24.57803       13.62746
H         73.39527       26.10329       12.69566
H         72.51171       25.91348       10.14562
H         74.09017       22.66169       12.50180
H         73.12502       24.72339        8.08978
H         74.70769       21.47935       10.42037
H         74.73179       21.53172        7.97717
N         70.63183       27.49658       13.78122
C         70.61859       28.52446       14.80858
C         69.19283       28.96071       15.07769
O         68.72724       28.79145       16.19217
C         71.50617       29.73703       14.35999
C         72.91083       29.33691       13.82894
C         71.63279       30.78700       15.47825
C         73.80778       28.61906       14.83198
H         70.35740       27.77299       12.82632
H         71.04351       28.12280       15.75544
H         71.01127       30.23157       13.49616
H         73.43874       30.25375       13.48531
H         72.79494       28.68010       12.93995
H         72.22053       31.65943       15.11989
H         70.63903       31.15628       15.78659
H         72.12704       30.36380       16.37580
H         74.78274       28.38587       14.35405
H         74.00497       29.24597       15.72471
H         73.33821       27.66799       15.13328
N         68.43927       29.55141       14.10971
C         67.12067       30.11966       14.37291
C         67.23433       31.26557       15.36518
O         66.45060       31.30927       16.30276
C         66.47166       30.61630       13.07792
O         66.30734       29.53435       12.20079
H         68.83318       29.63938       13.16060
H         66.44403       29.33554       14.78421
H         67.09970       31.39765       12.59834
H         65.47479       31.04535       13.33730
H         65.60889       29.80112       11.54889
N         68.24364       32.18614       15.25498
C         68.47867       33.29457       16.18546
C         68.70367       32.86246       17.63955
O         68.82649       33.74282       18.48369
C         67.31926       34.29518       16.09687
H         68.90294       32.09546       14.46749
H         69.39210       33.83942       15.85612
H         67.19829       34.63730       15.04707
H         66.36646       33.84584       16.44271
H         67.53390       35.18845       16.72271
N         68.74146       31.55283       18.02163
C         68.76036       31.10173       19.40419
C         69.94056       30.19989       19.69677
O         70.70567       29.87317       18.79713
C         67.45781       30.33854       19.66818
H         68.69678       30.82115       17.31329
H         68.81028       31.97032       20.09653
H         67.38879       29.45552       18.99539
H         67.39535       29.99027       20.71916
H         66.58879       30.99960       19.46598
N         70.15760       29.78721       20.97902
C         71.26749       28.94708       21.41234
C         72.58083       29.57068       20.97601
O         73.42834       28.89169       20.41344
C         71.06041       27.47634       20.95471
C         69.78001       26.90673       21.59948
C         69.38569       25.48840       21.26093
O         69.98610       24.73015       20.32070
O         68.44284       25.00364       21.86567
H         69.52347       30.13275       21.71667
H         71.27538       28.94598       22.52555
H         71.92303       26.85298       21.27912
H         71.00123       27.44916       19.85460
H         68.91066       27.54913       21.34491
H         69.93166       26.94366       22.70035
N         72.78105       30.90487       21.18168
C         73.97499       31.61515       20.77651
H         74.74932       30.93848       20.36072
H         73.70723       32.36604       20.00259
H         74.39867       32.14485       21.65476
H         72.03067       31.46416       21.61533
Ca        71.51035       25.22360       18.74173
O         69.14810       26.73059       18.11435
H         69.82545       27.43028       17.93987
H         68.37827       27.21358       18.50361
O         70.54531       22.15282       19.24146
H         69.79724       21.91667       19.84537
H         71.36084       21.90489       19.74521
O         73.68107       23.77938       20.06086
H         74.27375       24.34553       19.50512
H         73.22009       24.41833       20.66125
O         73.59568       26.23971       17.29723
H         74.25567       26.06454       16.58161
H         73.65058       27.21192       17.47533

Ca 1.0



