%chk=apoCaM-CA-Ng.loop2.water5.frame1461.chk
%nprocshared=20
%mem=10GB
%nosave
#b3lyp/svp scf=(tight,noincore,xqc) Test 
#IOP(5/87=12) Density=Current Pop=(MK,readradii) iop(6/33=2) iop(6/42=6)

apoCaM-CA-Ng.loop2.water5.frame1461 

   -2  1 
C         56.63884       84.28284       75.11848
C         57.41313       83.76035       73.93305
O         58.49979       84.27709       73.71801
H         55.66818       83.80800       75.32239
H         57.25646       84.15011       76.03088
H         56.44782       85.36590       74.97191
N         56.99418       82.76307       73.09742
C         55.72993       82.03248       73.16920
C         54.86853       82.25132       71.92794
O         53.78746       81.67988       71.88529
C         55.98597       80.53510       73.48862
C         56.82864       79.76668       72.51219
O         57.10463       78.47020       72.75000
O         57.27563       80.29738       71.51576
H         57.64077       82.50845       72.33591
H         55.10038       82.38395       73.99715
H         55.01016       80.01103       73.57896
H         56.49425       80.47863       74.47508
N         55.23722       83.09122       70.90864
C         54.37420       83.37758       69.76355
C         54.94317       82.85245       68.45997
O         54.23949       82.92072       67.46097
C         54.11977       84.88386       69.67424
H         56.14649       83.57411       70.94292
H         53.39176       82.87328       69.89002
H         53.42993       85.11431       68.83403
H         53.65555       85.24433       70.61637
H         55.07478       85.42899       69.51259
N         56.17413       82.26991       68.39209
C         56.66581       81.58646       67.20660
C         56.80680       80.09687       67.46714
O         57.19172       79.38588       66.55008
C         57.90919       82.30514       66.63066
C         59.09253       82.65584       67.50995
O         59.90129       83.45292       67.06128
O         59.29799       82.19515       68.76240
H         56.77669       82.24400       69.22535
H         55.91560       81.63468       66.38565
H         57.51639       83.28995       66.29144
H         58.27095       81.77768       65.72075
N         56.41380       79.53035       68.65196
C         56.42615       78.10022       68.87942
C         57.84633       77.53859       68.81688
O         58.56649       77.90283       69.95877
H         56.03073       80.11035       69.40857
H         55.78933       77.62994       68.10109
H         55.98454       77.86039       69.87283
N         57.81191       76.08310       68.62310
C         59.13336       75.42582       68.55483
C         60.10908       76.03125       67.52888
O         61.27638       75.66910       67.57272
C         58.88686       73.92172       68.30344
C         60.13559       73.08152       68.30603
N         60.48142       72.36563       67.21003
O         60.83369       73.03585       69.30762
H         57.28733       75.88705       67.73832
H         59.60653       75.54194       69.55574
H         58.36102       73.80809       67.32978
H         58.21021       73.53289       69.09632
H         59.90087       72.38801       66.35826
H         61.33094       71.78306       67.21099
N         59.73404       76.98635       66.62823
C         60.66396       77.73384       65.79012
C         60.60037       79.20370       66.17661
O         59.89194       79.52281       67.11217
H         58.74660       77.25580       66.54513
H         60.35763       77.60365       64.73112
H         61.70798       77.37716       65.90554
N         61.26266       80.19503       65.52317
C         62.12115       79.99385       64.37257
C         63.45942       79.41753       64.80802
O         63.78939       78.32131       64.38015
C         62.28624       81.31923       63.57296
C         60.93517       81.81038       63.02989
O         62.84533       82.32787       64.37494
H         61.09081       81.16114       65.84369
H         61.62574       79.28503       63.67182
H         62.95657       81.10664       62.70782
H         63.25221       82.99583       63.76399
H         61.08160       82.73655       62.43533
H         60.47697       81.04018       62.37481
H         60.22879       82.04241       63.85543
N         64.29338       80.11973       65.63425
C         65.62921       79.67566       66.02376
C         65.72359       79.68847       67.54997
O         65.52262       80.75635       68.11010
C         66.68777       80.63116       65.39743
C         66.60278       80.66847       63.84506
C         68.11721       80.28781       65.85897
C         66.92654       79.34480       63.13871
H         63.99130       81.04072       65.98000
H         65.81808       78.68030       65.61287
H         66.47251       81.66489       65.75158
H         67.31204       81.43668       63.46841
H         65.58410       80.98938       63.53890
H         68.21003       80.38920       66.96054
H         68.39162       79.24811       65.58731
H         68.84441       80.99097       65.39996
H         66.83744       79.48456       62.04136
H         67.96387       79.01886       63.35523
H         66.22508       78.53928       63.42927
N         66.00696       78.60153       68.33292
C         66.30954       77.24263       67.88622
C         67.63291       76.75070       68.46101
O         68.27749       77.46892       69.21460
C         65.12154       76.31371       68.23282
C         64.80572       76.15003       69.69956
O         65.55053       76.73457       70.65745
O         63.85332       75.46054       70.02663
H         65.98808       78.76121       69.35224
H         66.43052       77.18355       66.79644
H         65.30126       75.30356       67.80983
H         64.22092       76.72421       67.72640
N         68.09172       75.50874       68.14146
C         69.32513       74.94244       68.68943
C         70.55601       75.66263       68.14651
O         70.46504       76.22670       67.07115
C         69.44937       73.45795       68.26417
C         68.29323       72.60925       68.73138
C         68.04577       72.43300       70.10265
C         67.45937       71.97193       67.79477
C         66.98019       71.63396       70.52839
C         66.39519       71.17498       68.22498
C         66.15581       71.00565       69.59072
H         67.51758       74.92739       67.51298
H         69.26994       75.01415       69.79200
H         70.38054       73.00715       68.65992
H         69.51872       73.41958       67.15308
H         68.67958       72.90871       70.84030
H         67.63153       72.08991       66.73185
H         66.79532       71.49942       71.58592
H         65.75787       70.68688       67.49874
H         65.33289       70.38583       69.92187
N         71.78568       75.56695       68.75897
C         72.07333       74.99653       70.06484
C         71.37364       75.72478       71.19455
O         70.74148       75.08584       72.01784
C         73.59242       75.17837       70.22493
C         74.06153       75.10268       68.79363
C         73.01153       75.96325       68.09292
H         71.83265       73.91199       70.06437
H         73.83492       76.21240       70.56131
H         74.06597       74.46865       70.93633
H         75.11223       75.42000       68.62471
H         73.94395       74.04696       68.45522
H         73.18230       77.04872       68.26163
H         73.02092       75.72123       67.00860
N         71.46312       77.08687       71.28447
C         70.89398       77.83569       72.39606
C         71.71529       77.52783       73.64642
O         72.89148       77.86427       73.63576
C         70.94342       79.35966       72.11998
C         70.09555       79.76134       70.90001
C         70.15600       81.24264       70.66089
O         69.03004       81.98011       70.70493
O         71.22154       81.78316       70.40920
H         71.96058       77.59844       70.54286
H         69.82616       77.57547       72.48223
H         71.99761       79.67872       71.95883
H         70.54765       79.89805       73.01033
H         69.03931       79.46323       71.07596
H         70.45683       79.24899       69.98394
N         71.24469       76.89171       74.76122
C         69.91283       76.36050       74.96763
H         69.22594       76.49794       74.12007
H         69.99030       75.26883       75.15611
H         69.46266       76.84219       75.85976
H         71.90683       76.74852       75.54021
Ca        59.04738       80.09432       69.53751
O         62.58413       81.46233       68.46390
H         61.80958       82.02566       68.70039
H         63.33429       82.10458       68.40523
O         62.01269       78.37924       69.26860
H         62.23893       78.07549       68.35584
H         62.88652       78.61633       69.66747
O         60.99014       78.57087       72.13635
H         60.26618       78.67620       72.80329
H         61.47372       77.75412       72.41876
O         60.59780       82.55239       71.69828
H         61.44424       83.05266       71.58186
H         59.90205       83.16126       71.34460
O         63.17299       80.72212       71.49221
H         63.85530       80.00937       71.57363
H         63.69329       81.56399       71.47528

Ca 1.0



