%chk=apoCaM-CA-Ng.loop1.water3.frame85.chk
%nprocshared=20
%mem=10GB
%nosave
#b3lyp/svp scf=(tight,noincore,xqc) Test 
#IOP(5/87=12) Density=Current Pop=(MK,readradii) iop(6/33=2) iop(6/42=6)

apoCaM-CA-Ng.loop1.water3.frame85 

   0  1 
C         57.07393       52.87601      121.16591
C         55.70431       53.09994      121.72939
O         55.33783       54.24544      121.95168
H         57.66697       52.25417      121.86798
H         56.99560       52.35858      120.18746
H         57.59860       53.84480      121.01673
N         54.88532       52.03857      121.98330
C         53.54908       52.18753      122.54841
C         53.44428       51.44723      123.87411
O         52.48166       50.72069      124.08360
C         52.46596       51.76725      121.52234
C         52.53613       50.31922      121.10092
O         51.59507       49.57362      121.32141
O         53.61168       49.84496      120.44395
H         55.23485       51.09143      121.77766
H         53.35590       53.25569      122.77599
H         52.55931       52.39950      120.61337
H         51.46611       51.96727      121.96704
N         54.42305       51.57805      124.81957
C         54.36135       50.92694      126.12521
C         54.75006       51.90798      127.22253
O         55.87291       52.39049      127.15389
C         55.32328       49.72427      126.19506
C         54.94239       48.61209      125.20909
C         55.75269       47.34179      125.49347
C         55.36755       46.20976      124.53419
N         56.06439       44.97233      124.88438
H         55.26350       52.12995      124.58900
H         53.35505       50.52426      126.28316
H         55.25530       49.30788      127.22481
H         56.37626       50.03828      126.01973
H         55.10951       48.96025      124.16632
H         53.86536       48.36466      125.33657
H         55.53869       47.01393      126.53529
H         56.84074       47.55236      125.40312
H         55.62647       46.50424      123.49298
H         54.27032       46.03092      124.58730
H         55.78375       44.66578      125.84484
H         55.79886       44.22472      124.20362
H         57.09964       45.11523      124.84939
N         53.96435       52.27940      128.28264
C         52.57907       51.91804      128.59247
C         52.38552       50.44916      128.98295
O         52.87383       49.56869      128.29593
C         51.57142       52.37581      127.52216
C         51.68823       53.83895      127.18439
O         50.82096       54.36732      126.31391
O         52.57290       54.54344      127.64531
H         54.39169       52.95070      128.94196
H         52.30352       52.53401      129.47059
H         50.54548       52.19229      127.90903
H         51.67102       51.80259      126.58361
N         51.64077       50.07157      130.06193
C         50.94989       51.01671      130.92525
C         50.15356       50.35764      132.02944
O         50.11308       49.13797      132.10801
H         51.55329       49.05942      130.24096
H         50.24878       51.62262      130.31114
H         51.70586       51.67122      131.40916
N         49.50283       51.09169      132.97422
C         49.45890       52.55059      133.02480
C         48.02119       53.01397      133.14950
O         47.30301       52.52115      134.00952
C         50.34575       53.09253      134.16371
C         49.98448       52.61874      135.54306
O         49.62598       53.51142      136.48468
O         50.06022       51.43592      135.83314
H         49.02698       50.57268      133.72840
H         49.88994       53.00527      132.10913
H         50.29547       54.20403      134.13739
H         51.40023       52.80330      133.95991
N         47.54134       53.99753      132.33996
C         46.17108       54.46498      132.40726
C         45.24895       53.48336      131.73704
O         44.32738       52.98271      132.36519
H         48.17841       54.46527      131.67742
H         46.08083       55.41583      131.83823
H         45.88433       54.67811      133.46111
N         45.42809       53.21770      130.41300
C         44.53525       52.39953      129.60608
C         45.31032       51.26039      128.96563
O         46.37734       51.48682      128.41182
C         43.87781       53.27961      128.52290
C         43.05979       54.41508      129.15596
O         43.02356       52.48495      127.74543
H         46.21406       53.67795      129.92714
H         43.70822       51.97779      130.22127
H         44.67787       53.71099      127.87724
H         42.74599       53.04341      126.97367
H         42.25797       53.99750      129.80272
H         43.70683       55.08050      129.76385
H         42.58809       55.02899      128.36014
N         44.78186       50.00647      128.96394
C         45.43129       48.83267      128.38413
C         44.70368       48.34142      127.12823
O         45.10400       47.31567      126.59572
C         45.59230       47.71958      129.47419
C         44.23797       47.31150      130.12404
C         46.61230       48.18593      130.53149
C         44.34424       46.15522      131.12175
H         43.84222       49.88600      129.36733
H         46.45419       49.08162      128.02370
H         46.02990       46.82237      128.98204
H         43.53369       47.00081      129.32309
H         43.79238       48.16595      130.67386
H         46.83892       47.38069      131.25855
H         47.57516       48.44580      130.04123
H         46.24061       49.07630      131.08087
H         44.76279       45.25263      130.63105
H         44.97032       46.42879      131.99552
H         43.33176       45.91369      131.51056
N         43.67097       49.03849      126.56087
C         42.96267       48.59403      125.35381
C         43.82249       48.56283      124.08127
O         43.31240       48.09810      123.07140
C         41.70533       49.47304      125.09851
C         42.05441       50.90973      124.67424
O         40.91712       49.49580      126.26121
H         43.34566       49.89698      127.02313
H         42.60250       47.56020      125.55467
H         41.12027       49.00469      124.27246
H         40.01750       49.82131      125.99543
H         42.68607       51.40756      125.42837
H         42.60410       50.91441      123.71368
H         41.12714       51.50291      124.53086
N         45.09778       49.06008      124.03304
C         45.95725       49.07998      122.83995
C         45.40286       49.99785      121.74433
O         44.27883       50.46363      121.85036
C         46.22210       47.63810      122.30367
C         46.76921       46.70959      123.38893
O         47.15305       47.67013      121.25124
H         45.50756       49.46086      124.88794
H         46.93156       49.51905      123.15216
H         45.25968       47.20987      121.94025
H         46.84518       47.03153      120.55546
H         46.04514       46.60668      124.22157
H         46.94067       45.69871      122.96072
H         47.73120       47.09927      123.78345
N         46.16944       50.30640      120.65526
C         45.70701       51.10902      119.52287
C         46.53868       52.37109      119.31450
O         46.27219       53.08271      118.35373
C         45.67257       50.23795      118.24752
C         47.04163       49.68704      117.81828
C         46.90354       48.81953      116.56022
C         48.24461       48.24546      116.07320
N         48.86134       47.34969      117.05497
H         47.13164       49.94708      120.61793
H         44.66050       51.44725      119.68743
H         45.24732       50.83971      117.41334
H         44.98216       49.38533      118.43172
H         47.45012       49.06438      118.63542
H         47.73964       50.52765      117.61311
H         46.47720       49.44059      115.74192
H         46.20115       47.98067      116.76069
H         48.94574       49.07326      115.82728
H         48.04952       47.67223      115.13991
H         49.16702       47.87909      117.90188
H         48.19234       46.59304      117.32695
H         49.70954       46.91246      116.62850
N         47.50860       52.75995      120.19148
C         48.21537       54.02859      120.05218
C         49.26507       53.95090      118.96475
O         50.13873       53.09660      119.04071
C         48.84826       54.42887      121.39265
C         49.32536       55.89548      121.39483
C         49.71744       56.28320      122.78393
O         48.91770       56.13462      123.69584
O         50.93881       56.76488      123.06791
H         47.67507       52.19883      121.04024
H         47.46186       54.81889      119.83317
H         49.67105       53.73489      121.67652
H         48.04524       54.33755      122.15827
H         48.48507       56.55498      121.09000
H         50.17232       56.04173      120.69023
N         49.26158       54.83822      117.93438
C         50.27413       54.81651      116.90099
H         51.28095       54.95078      117.35281
H         50.23972       53.85036      116.35486
H         50.09837       55.64329      116.18068
H         48.53306       55.56656      117.89138
Ca        51.39576       56.20556      125.17510
O         53.96614       54.79495      124.79676
H         54.76201       55.16858      125.25000
H         53.80169       55.40758      124.03609
O         51.48920       57.52238      128.20145
H         50.99396       57.00657      128.88642
H         52.41931       57.55475      128.53970
O         48.48667       55.88913      127.33985
H         48.38328       56.79029      127.73646
H         47.98855       55.93445      126.48532

Ca 1.0



