%chk=apoCaM-CA-Ng.loop3.water4.frame251.chk
%nprocshared=20
%mem=10GB
%nosave
#b3lyp/svp scf=(tight,noincore,xqc) Test 
#IOP(5/87=12) Density=Current Pop=(MK,readradii) iop(6/33=2) iop(6/42=6)

apoCaM-CA-Ng.loop3.water4.frame251 

   0  1 
C         35.88553       65.46644       10.33581
C         35.88832       66.48379        9.23516
O         34.86543       67.10900        8.99918
H         36.64399       65.73808       11.09924
H         34.88778       65.41256       10.82165
H         36.13046       64.46832        9.91551
N         37.02275       66.69027        8.50572
C         37.14572       67.64115        7.40154
C         36.30288       67.26660        6.18166
O         36.34642       68.01553        5.21452
C         36.86079       69.08943        7.86650
C         37.72791       69.48625        9.02979
O         38.94425       69.47991        8.92430
O         37.16304       69.86132       10.19345
H         37.86477       66.14789        8.75384
H         38.20348       67.61940        7.05256
H         35.79473       69.20786        8.14771
H         37.06384       69.79329        7.02991
N         35.56361       66.11547        6.11675
C         34.82325       65.69743        4.92690
C         33.34304       65.48227        5.20002
O         32.64254       65.10083        4.27198
C         35.36087       64.32559        4.44977
C         36.87331       64.23833        4.24488
C         37.38857       65.16126        3.13705
C         38.88918       64.95808        2.87251
N         39.71296       65.28298        4.03961
H         35.56282       65.46323        6.91247
H         34.92428       66.44811        4.11362
H         34.84958       64.02791        3.50714
H         35.10854       63.56594        5.22502
H         37.10812       63.18708        3.96773
H         37.37272       64.46087        5.20974
H         37.20136       66.22267        3.39974
H         36.83996       64.93183        2.19732
H         39.18251       65.61896        2.02813
H         39.07670       63.90493        2.56480
H         40.72067       65.20676        3.77354
H         39.51795       66.25915        4.36010
H         39.53967       64.60948        4.81903
N         32.81120       65.60107        6.45003
C         31.49716       65.07982        6.78762
C         30.58114       66.18514        7.28425
O         30.98514       66.98803        8.11281
C         31.69891       63.93914        7.80570
C         30.43324       63.16752        8.02543
O         29.46825       63.70439        8.52902
O         30.33518       61.87934        7.66052
H         33.38223       65.95620        7.22774
H         31.02370       64.60146        5.90174
H         32.09958       64.32382        8.76819
H         32.44733       63.23051        7.38541
N         29.29925       66.24734        6.82291
C         28.31907       67.25394        7.20143
C         28.11314       67.35510        8.69818
O         28.18158       68.45324        9.23056
H         28.98126       65.51947        6.16591
H         27.34814       66.97493        6.73399
H         28.61804       68.24260        6.79368
N         27.88014       66.23983        9.44043
C         27.65521       66.24238       10.88542
C         28.87027       65.76443       11.68082
O         28.76995       65.68921       12.89834
C         26.41254       65.39207       11.24008
C         26.59400       63.91866       10.93812
N         26.67695       63.01600       11.94099
O         26.67012       63.53367        9.78171
H         27.89549       65.34643        8.94502
H         27.45485       67.27969       11.23284
H         25.51290       65.77198       10.71041
H         26.22520       65.51649       12.32904
H         26.62384       63.30491       12.92803
H         26.82003       62.02137       11.72442
N         30.06208       65.47559       11.08724
C         31.23809       65.06554       11.83460
C         31.08364       63.68096       12.41519
O         31.19841       63.51858       13.62143
H         30.17024       65.59739       10.07446
H         31.46321       65.81702       12.62381
H         32.11135       65.03339       11.14792
N         30.87487       62.62274       11.58308
C         30.83955       61.23231       12.01039
C         29.52580       60.56694       11.67849
O         29.12610       60.55246       10.52545
C         31.95485       60.42577       11.32048
C         33.28444       60.68239       11.97137
C         33.79696       59.71366       12.85008
C         34.00512       61.86693       11.75206
C         35.00175       59.92612       13.51172
C         35.22487       62.07227       12.40875
C         35.72224       61.10661       13.29461
O         36.88747       61.32177       13.93590
H         30.78330       62.80901       10.57817
H         30.99443       61.14413       13.10887
H         31.98362       60.57376       10.21741
H         31.71717       59.35019       11.47721
H         33.24972       58.79823       13.04301
H         33.62910       62.62451       11.07519
H         35.36730       59.17221       14.19709
H         35.78077       62.98443       12.23600
H         37.24837       60.68018       14.56515
N         28.85939       59.89398       12.65788
C         27.68646       59.06451       12.42902
C         26.52193       59.68385       13.17500
O         25.51416       59.96963       12.54318
C         27.97592       57.58995       12.86708
C         29.21158       57.02266       12.11599
C         26.75745       56.68486       12.59220
C         29.65337       55.63692       12.59829
H         29.23470       59.92303       13.61773
H         27.43117       59.03628       11.34763
H         28.19243       57.59034       13.95850
H         30.07989       57.69619       12.26253
H         28.99345       56.96878       11.02919
H         26.54222       56.62863       11.50432
H         26.90966       55.66231       12.98960
H         25.85799       57.06097       13.08558
H         28.87303       54.86755       12.43407
H         30.55017       55.31807       12.02644
H         29.91476       55.67280       13.67683
N         26.59223       59.96204       14.51323
C         25.47866       60.58400       15.22585
C         24.25765       59.68350       15.23114
O         23.15656       60.18803       15.39563
C         25.86574       60.97603       16.65579
O         26.22378       59.83682       17.38952
H         27.46062       59.75088       15.02671
H         25.22218       61.52112       14.68018
H         25.00754       61.48496       17.14841
H         26.72504       61.68330       16.59977
H         26.68191       60.16648       18.20542
N         24.38253       58.34476       14.99138
C         23.26685       57.43918       14.78224
C         22.41732       57.95545       13.63325
O         21.23788       58.22664       13.82175
C         22.48665       57.22136       16.08361
H         25.32301       57.94357       14.91045
H         23.67133       56.44216       14.49270
H         22.02739       58.16030       16.45133
H         21.68632       56.46869       15.91709
H         23.17276       56.82688       16.86416
N         22.97149       58.11987       12.39653
C         22.21808       58.63966       11.25981
C         22.90167       58.36548        9.92851
O         24.05762       57.96258        9.89578
C         21.97466       60.14632       11.42678
H         23.94769       57.82514       12.26483
H         21.25422       58.08619       11.22132
H         21.36925       60.54524       10.58669
H         21.43900       60.36143       12.37383
H         22.94702       60.68619       11.44967
N         22.17426       58.46411        8.77519
C         22.66132       58.10481        7.44337
C         23.07663       56.63511        7.32245
O         23.52129       56.26126        6.24561
C         23.79041       59.05280        6.97356
C         23.28843       60.49864        6.83337
C         24.35602       61.38871        6.26434
O         25.50945       61.57342        6.92966
O         24.18065       61.95421        5.19665
H         21.19162       58.77179        8.84419
H         21.82532       58.23436        6.71965
H         24.12821       58.72652        5.96456
H         24.66485       59.00132        7.65484
H         22.96721       60.89661        7.81858
H         22.41137       60.51070        6.14834
N         22.93695       55.73453        8.34270
C         23.33922       54.34601        8.24274
H         24.10132       54.13091        9.02131
H         22.45698       53.69524        8.41569
H         23.77336       54.09618        7.25256
H         22.51878       56.00982        9.23903
Ca        28.27229       61.00976        7.92315
O         27.75693       59.94547        5.36151
H         27.68145       58.98549        5.13425
H         27.21045       60.41318        4.68179
O         27.75298       63.19126        5.89800
H         28.55018       63.03027        5.33332
H         27.11978       63.67185        5.30839
O         25.69964       60.77549        9.67147
H         25.88576       59.80663        9.73212
H         24.71978       60.83612        9.55087
O         28.42399       58.24633        8.46392
H         29.26220       58.00176        8.92998
H         27.69842       57.94824        9.06758

Ca 1.0



