%chk=apoCaM-CA-Ng.loop4.water3.frame992.chk
%nprocshared=20
%mem=10GB
%nosave
#b3lyp/svp scf=(tight,noincore,xqc) Test 
#IOP(5/87=12) Density=Current Pop=(MK,readradii) iop(6/33=2) iop(6/42=6)

apoCaM-CA-Ng.loop4.water3.frame992 

   -3  1 
C         65.28791      106.78776       72.43529
C         65.37730      108.26202       72.69492
O         66.11743      108.95074       72.00779
H         65.58521      106.23105       73.34918
H         64.24253      106.52036       72.17236
H         65.95557      106.48897       71.59986
N         64.62706      108.81289       73.68894
C         64.61881      110.22766       74.04195
C         64.11713      111.07644       72.88919
O         64.77094      112.03443       72.49753
C         65.99210      110.68357       74.58013
C         66.37467      109.90891       75.80835
O         67.39157      109.23723       75.81998
O         65.59870      109.95816       76.90782
H         64.00983      108.19069       74.23373
H         63.87940      110.36941       74.86196
H         65.94953      111.75957       74.85555
H         66.76940      110.56049       73.79755
N         62.91635      110.77777       72.31970
C         62.27549      111.59740       71.30085
C         60.88882      111.95312       71.82864
O         60.12031      111.01875       72.01635
C         62.14322      110.80708       69.95269
C         63.50828      110.22527       69.48556
C         61.50689      111.71382       68.87604
C         63.43958      109.43023       68.17895
H         62.41605      109.93560       72.64502
H         62.88102      112.49847       71.09931
H         61.46768      109.93736       70.11228
H         63.88902      109.53664       70.26855
H         64.25900      111.01700       69.34856
H         60.51951      112.09316       69.21129
H         62.15908      112.58281       68.65449
H         61.31821      111.15820       67.93636
H         63.16217      110.08088       67.32416
H         64.44182      109.00781       67.95313
H         62.71178      108.59721       68.26631
N         60.41947      113.21127       72.08041
C         61.11183      114.49338       71.98533
C         60.84290      115.28821       73.26231
O         59.68883      115.36545       73.66373
C         60.53344      115.24894       70.77730
C         61.11995      116.62285       70.62903
O         60.31166      117.69691       70.67353
O         62.32080      116.77409       70.47428
H         59.42324      113.26504       72.34931
H         62.20235      114.38529       71.82200
H         59.43047      115.34068       70.88736
H         60.74340      114.66995       69.85249
N         61.83499      115.95674       73.92089
C         61.58718      116.70620       75.15016
C         61.69518      118.21016       74.99177
O         61.48664      118.89653       75.98237
H         62.79200      115.95086       73.53519
H         62.30317      116.36129       75.92690
H         60.56571      116.51108       75.53804
N         62.01677      118.80286       73.80641
C         62.14155      120.24746       73.64268
C         61.32960      120.74816       72.45891
O         60.47726      121.60317       72.66046
C         63.63250      120.67111       73.58152
C         64.53716      119.83668       72.70982
O         65.20937      120.35945       71.83761
O         64.70584      118.52570       72.96979
H         62.22581      118.21200       72.99091
H         61.74228      120.78429       74.53390
H         64.04714      120.57637       74.60710
H         63.69294      121.74794       73.30069
N         61.56809      120.30528       71.19370
C         60.93731      120.88128       70.01141
C         61.96217      121.57097       69.12815
O         61.57383      122.14126       68.11920
H         62.26964      119.56459       71.05097
H         60.17740      121.64292       70.29054
H         60.41901      120.08430       69.43726
N         63.29158      121.56680       69.45074
C         64.35234      122.24457       68.72283
C         64.57670      121.70204       67.31518
O         65.41206      122.25565       66.61464
C         64.17343      123.77586       68.79261
C         64.09001      124.24264       70.26287
C         64.16492      125.74125       70.38240
N         63.15497      126.44929       70.93856
O         65.16631      126.32312       69.99211
H         63.60097      121.08161       70.29215
H         65.31052      122.04347       69.25544
H         63.27264      124.11210       68.23709
H         65.06846      124.23885       68.32246
H         64.94142      123.82343       70.84293
H         63.14904      123.86138       70.71795
H         62.30384      125.98159       71.28198
H         63.22755      127.47368       71.02955
N         63.95341      120.56968       66.86893
C         64.22836      119.94949       65.57157
C         64.90326      118.58596       65.72543
O         65.26102      117.99842       64.71327
C         62.91467      119.79866       64.74755
C         61.86971      118.89909       65.44269
C         62.29612      121.16572       64.43531
H         63.29463      120.08624       67.49088
H         64.93838      120.57767       64.99092
H         63.17226      119.32286       63.77515
H         61.51162      119.34239       66.39516
H         60.98559      118.76277       64.78497
H         62.28894      117.89322       65.65460
H         62.00240      121.69217       65.36768
H         63.02291      121.79423       63.87920
H         61.39226      121.03781       63.80157
N         65.05661      117.99600       66.94445
C         65.54670      116.63941       67.14727
C         66.63197      116.63017       68.23271
O         66.90607      117.67108       68.81608
C         64.29416      115.82727       67.56459
C         64.55130      114.40506       67.95318
N         64.36265      114.02239       69.23590
O         64.95859      113.60280       67.12538
H         64.71312      118.47560       67.78769
H         65.96691      116.20939       66.21115
H         63.54691      115.83821       66.74044
H         63.83468      116.34770       68.42964
H         64.02848      114.68647       69.94835
H         64.58472      113.07074       69.53469
N         67.24469      115.46482       68.59768
C         68.08707      115.32781       69.77788
C         69.31685      114.49667       69.48041
O         69.16548      113.37684       69.00989
C         67.24436      114.63081       70.87035
C         68.00611      114.37984       72.15088
C         68.61790      115.43780       72.84388
C         68.10290      113.07705       72.66795
C         69.32665      115.19342       74.02318
C         68.79943      112.83859       73.85508
C         69.41988      113.89515       74.53337
O         70.10480      113.67524       75.67339
H         67.01026      114.59794       68.09859
H         68.38470      116.32217       70.17189
H         66.85386      113.66685       70.47334
H         66.36934      115.27521       71.10335
H         68.55498      116.45107       72.47061
H         67.63646      112.24434       72.15610
H         69.80210      116.01596       74.54155
H         68.85956      111.83179       74.24631
H         70.19405      112.79095       76.05678
N         70.56219      114.94524       69.81856
C         71.74921      114.10631       69.71353
C         72.31850      113.88122       71.10595
O         72.92070      114.80807       71.63213
C         72.83086      114.75862       68.82566
C         72.36845      115.00684       67.38862
C         73.49237      115.59304       66.57965
O         73.91834      115.00141       65.60077
O         74.04035      116.77206       66.93403
H         70.66332      115.88424       70.23419
H         71.49049      113.13838       69.25523
H         73.71758      114.08543       68.80323
H         73.14194      115.73118       69.27060
H         71.51283      115.71543       67.38068
H         72.04253      114.04549       66.93582
N         72.16609      112.72905       71.82435
C         71.32183      111.58850       71.47279
C         71.80406      110.83767       70.24822
O         72.96460      110.45427       70.19760
C         71.26980      110.60119       72.66017
C         70.17674      109.53605       72.47719
C         70.17565      108.58142       73.63168
O         70.00753      109.03646       74.88736
O         70.33280      107.38722       73.43756
H         72.61379      112.71415       72.75548
H         70.28771      111.96559       71.31980
H         71.03863      111.16325       73.58989
H         72.26551      110.12286       72.79550
H         70.33739      108.96838       71.53579
H         69.18355      110.03277       72.42007
N         70.92223      110.52413       69.25662
C         71.26743      109.72998       68.09620
H         72.33971      109.44436       68.08132
H         70.66036      108.79904       68.10153
H         71.03658      110.30240       67.17481
H         69.93920      110.82230       69.34465
Ca        68.42518      106.35700       75.70662
O         71.56090      106.09602       75.92932
H         72.46755      106.43974       76.12871
H         71.66834      105.58449       75.08825
O         67.89500      106.04763       78.70227
H         67.49557      105.20205       78.37638
H         67.32914      106.31041       79.47081
O         70.26174      108.33085       78.05306
H         71.11066      108.83491       77.97643
H         69.65923      108.93393       78.55683

Ca 1.0



