%chk=apoCaM-CA-Ng.loop3.water3.frame939.chk
%nprocshared=20
%mem=10GB
%nosave
#b3lyp/svp scf=(tight,noincore,xqc) Test 
#IOP(5/87=12) Density=Current Pop=(MK,readradii) iop(6/33=2) iop(6/42=6)

apoCaM-CA-Ng.loop3.water3.frame939 

   0  1 
C        -30.86868      105.19557       67.31645
C        -31.93094      106.13301       66.82933
O        -33.04179      106.12573       67.34072
H        -30.00432      105.79042       67.68602
H        -31.23814      104.55167       68.14005
H        -30.52828      104.56132       66.47191
N        -31.61672      107.01339       65.84621
C        -32.52121      108.04661       65.36080
C        -33.61936      107.44788       64.47789
O        -33.40710      106.37962       63.92203
C        -31.65296      109.08473       64.60928
C        -32.25370      110.43681       64.43461
O        -31.57429      111.33006       63.95477
O        -33.49094      110.70851       64.87239
H        -30.64543      106.99718       65.49680
H        -32.95578      108.54648       66.24712
H        -31.32040      108.66981       63.63305
H        -30.74844      109.27893       65.22495
N        -34.80972      108.09042       64.28799
C        -35.86618      107.62176       63.38529
C        -36.12588      108.60927       62.23874
O        -36.95045      108.31184       61.38567
C        -37.16083      107.33330       64.17852
C        -37.68689      108.56229       64.93508
C        -39.03801      108.30012       65.59970
C        -39.41370      109.49842       66.48257
N        -40.79033      109.39727       66.95807
H        -34.97924      108.96076       64.80311
H        -35.56077      106.66962       62.90134
H        -36.96030      106.52497       64.91639
H        -37.93631      106.96363       63.47223
H        -37.81059      109.41827       64.23601
H        -36.95825      108.84350       65.71828
H        -39.00027      107.38653       66.23451
H        -39.79611      108.14850       64.80044
H        -39.30574      110.44612       65.91008
H        -38.71419      109.53484       67.34963
H        -40.94855      108.48597       67.44481
H        -40.97639      110.18238       67.62310
H        -41.44291      109.48512       66.14495
N        -35.44268      109.78464       62.14324
C        -35.57319      110.75657       61.06504
C        -34.26305      110.87893       60.29200
O        -34.32474      110.92103       59.07045
C        -36.09784      112.11711       61.59144
C        -35.55870      112.57327       62.93574
O        -36.35320      112.80722       63.82978
O        -34.23737      112.73290       63.17185
H        -34.76489      110.01685       62.87139
H        -36.32610      110.43281       60.30883
H        -37.20170      112.01438       61.71576
H        -35.94717      112.89560       60.81028
N        -33.04674      110.90729       60.91125
C        -31.78122      110.97315       60.19325
C        -31.01643      112.25067       60.46706
O        -29.97014      112.42453       59.85834
H        -32.99953      110.85259       61.93163
H        -31.94603      110.93399       59.09536
H        -31.15931      110.09270       60.46603
N        -31.47792      113.21062       61.32266
C        -30.85810      114.52808       61.42465
C        -30.99008      115.17637       62.79066
O        -31.66607      114.65925       63.65628
C        -31.39743      115.44736       60.30023
C        -32.88481      115.78714       60.25325
N        -33.79956      115.35548       61.15674
O        -33.26748      116.49637       59.33538
H        -32.35438      113.04251       61.81418
H        -29.76237      114.40517       61.28295
H        -31.14890      114.96063       59.33372
H        -30.84384      116.40735       60.33687
H        -33.55400      114.77931       61.96206
H        -34.79277      115.61416       61.05349
N        -30.31747      116.33034       63.05037
C        -30.38126      117.06181       64.30311
C        -29.94758      116.22924       65.48478
O        -28.90032      115.59970       65.43813
H        -29.71584      116.72407       62.31370
H        -31.41186      117.45173       64.46021
H        -29.70108      117.93564       64.22803
N        -30.70537      116.23675       66.61288
C        -30.38726      115.48186       67.81438
C        -30.83755      113.98486       67.61694
O        -32.18424      113.99764       67.20706
C        -31.07183      116.17831       69.03877
C        -30.66090      117.64238       69.17960
C        -31.62485      118.66668       69.09479
C        -29.31472      118.00290       69.38919
C        -31.24834      120.01334       69.18982
C        -28.94167      119.35067       69.48193
C        -29.90308      120.35965       69.37403
O        -29.52265      121.65295       69.44411
H        -31.53155      116.85438       66.63734
H        -29.29207      115.53927       68.01963
H        -30.80902      115.66152       69.98634
H        -32.17434      116.10582       68.91442
H        -32.66986      118.42824       68.94580
H        -28.54714      117.24565       69.47251
H        -32.00130      120.78857       69.11316
H        -27.90093      119.61349       69.62971
H        -30.15021      122.38402       69.34646
N        -30.75931      113.28742       68.91876
C        -30.93304      111.81894       68.97248
C        -32.35738      111.40291       68.65710
O        -32.76120      111.42021       67.50428
C        -29.84701      111.01841       68.19105
C        -30.07959      109.47575       68.21023
C        -28.44984      111.35885       68.73893
C        -30.32349      108.83776       69.58236
H        -29.91422      113.56548       69.46754
H        -30.77951      111.55910       70.04153
H        -29.86169      111.31707       67.11911
H        -29.20894      108.97389       67.73193
H        -30.96835      109.24041       67.59320
H        -28.37968      111.12259       69.82185
H        -27.66638      110.79304       68.19467
H        -28.22596      112.43595       68.59465
H        -30.45789      107.74205       69.45403
H        -29.48164      109.01645       70.27882
H        -31.26021      109.21874       70.03291
N        -33.17802      111.00296       69.67422
C        -34.54505      110.54941       69.44299
C        -35.43586      110.52567       70.68040
O        -36.56902      110.07862       70.55397
C        -34.50870      109.13569       68.82266
O        -35.58015      108.97915       67.93591
H        -32.78489      111.02600       70.61780
H        -35.01567      111.27597       68.75365
H        -34.55956      108.36019       69.62204
H        -33.55724      108.97875       68.28173
H        -35.51223      108.05769       67.57525
N        -35.02444      110.96895       71.90428
C        -35.87428      110.89388       73.07246
C        -36.81386      112.08720       73.08590
O        -36.47790      113.09486       72.47746
C        -34.98651      110.84099       74.31818
H        -34.10905      111.40747       72.04370
H        -36.42989      109.93480       73.04075
H        -34.40027      111.77515       74.44278
H        -35.59163      110.68905       75.21192
H        -34.28026      109.98448       74.23441
N        -38.00956      112.09847       73.73694
C        -38.58975      110.97159       74.45727
C        -39.59767      111.50884       75.45837
O        -40.48284      112.24051       75.03478
C        -39.30282      110.02354       73.48024
H        -38.55759      112.97199       73.67472
H        -37.79708      110.39488       74.96158
H        -40.20703      110.49989       73.04409
H        -38.64111      109.72596       72.64275
H        -39.61302      109.10104       74.01763
N        -39.59297      111.22128       76.78916
C        -38.70354      110.29250       77.47568
C        -37.27604      110.79746       77.52387
O        -36.37646      110.01490       77.25633
C        -39.26323      110.03041       78.88812
C        -38.53601      108.89741       79.62111
C        -39.26526      108.54673       80.88713
O        -39.45592      109.47681       81.84195
O        -39.70401      107.41860       81.04854
H        -40.34579      111.65631       77.34677
H        -38.73954      109.31055       76.95071
H        -40.32335      109.71418       78.75984
H        -39.24761      110.96182       79.49664
H        -37.49549      109.20179       79.85894
H        -38.50307      107.99663       78.96789
N        -36.99123      112.07793       77.89378
C        -35.64586      112.62166       77.90831
H        -34.92764      111.98796       77.34447
H        -35.64602      113.62578       77.43174
H        -35.29940      112.72559       78.95647
H        -37.76104      112.70511       78.16911
Ca       -33.23710      113.35927       65.19343
O        -34.72881      114.42308       67.51874
H        -34.59399      114.17582       68.46784
H        -35.31546      115.21745       67.53541
O        -35.86003      112.06588       66.29983
H        -35.63913      111.16473       66.63537
H        -36.49350      112.44343       66.95913
O        -34.48103      115.71141       64.71766
H        -34.02767      116.42427       65.23328
H        -35.04639      116.18149       64.05756

Ca 1.0



