%chk=apoCaM-CA-Ng.loop2.water3.frame1312.chk
%nprocshared=20
%mem=10GB
%nosave
#b3lyp/svp scf=(tight,noincore,xqc) Test 
#IOP(5/87=12) Density=Current Pop=(MK,readradii) iop(6/33=2) iop(6/42=6)

apoCaM-CA-Ng.loop2.water3.frame1312 

   -2  1 
C         32.66917       28.98458       89.42623
C         33.65388       30.09240       89.67450
O         34.84518       29.81805       89.66641
H         32.06594       29.20675       88.52158
H         33.20064       28.02251       89.26255
H         32.00458       28.86918       90.30789
N         33.27577       31.38118       89.91288
C         31.89105       31.85947       89.94081
C         31.47221       32.40129       91.31373
O         30.30001       32.71448       91.47422
C         31.68700       32.95216       88.86102
C         32.48653       34.20638       89.12739
O         32.28384       35.32149       88.41448
O         33.27003       34.26827       90.06067
H         34.03710       32.05511       90.07601
H         31.19676       31.02668       89.71078
H         30.61076       33.23372       88.86007
H         31.93485       32.55768       87.85268
N         32.35906       32.55243       92.34301
C         31.97847       33.02716       93.67389
C         31.48979       34.48062       93.74175
O         31.10378       34.87973       94.83270
C         33.16220       32.85581       94.63634
H         33.33850       32.27002       92.20050
H         31.15882       32.37142       94.04437
H         32.87024       33.13130       95.67235
H         33.48914       31.79375       94.64667
H         34.01573       33.49239       94.31913
N         31.43376       35.32281       92.66226
C         30.86383       36.67223       92.75930
C         30.34901       37.19517       91.43136
O         30.45968       36.50986       90.42543
C         31.79963       37.65527       93.51455
C         33.10109       38.18313       92.92329
O         33.56065       37.99573       91.66297
O         33.78228       38.88158       93.65691
H         31.71317       34.96817       91.74562
H         29.93647       36.58271       93.36966
H         32.06276       37.17297       94.47901
H         31.20490       38.55667       93.77439
N         29.67068       38.37501       91.36530
C         29.12300       38.86079       90.11197
C         30.19513       39.38879       89.18830
O         31.32953       39.57698       89.60627
H         29.48449       38.90999       92.22650
H         28.42149       39.70146       90.30228
H         28.54596       38.04264       89.62878
N         29.86867       39.68712       87.90184
C         30.77389       40.33299       86.95688
C         30.17134       41.63225       86.42953
O         30.82347       42.29322       85.63170
C         31.02449       39.40095       85.75594
C         31.58831       38.06632       86.16386
N         30.91099       36.92599       85.89143
O         32.66831       38.01181       86.73229
H         28.92003       39.44333       87.57772
H         31.74714       40.56856       87.44304
H         31.73783       39.87948       85.04929
H         30.06284       39.24965       85.21737
H         29.99953       36.95351       85.41131
H         31.29637       36.00881       86.15539
N         28.90849       42.03131       86.77025
C         28.23765       43.15530       86.15296
C         28.82538       44.49072       86.52447
O         29.77925       44.54452       87.28778
H         28.33957       41.48660       87.42941
H         27.17942       43.15871       86.49197
H         28.25846       43.01916       85.04979
N         28.30214       45.64920       86.03520
C         27.17124       45.72803       85.10919
C         27.59797       46.33048       83.77488
O         26.73392       46.61685       82.95839
C         25.99873       46.49551       85.76921
C         25.44460       45.73453       86.98996
O         26.36237       47.81370       86.10148
H         28.74137       46.53671       86.32867
H         26.76139       44.73156       84.85131
H         25.15884       46.55045       85.04242
H         26.85264       47.79401       86.96437
H         26.21579       45.62727       87.78213
H         24.57139       46.27383       87.41301
H         25.10979       44.71832       86.68721
N         28.91865       46.47874       83.45497
C         29.40630       47.02448       82.19326
C         30.19068       45.92402       81.47030
O         31.06449       45.34375       82.09961
C         30.31522       48.25561       82.48549
C         29.54063       49.31437       83.31583
C         30.83571       48.86477       81.16854
C         30.39049       50.51621       83.73139
H         29.63968       46.17786       84.12627
H         28.55962       47.37995       81.57582
H         31.18889       47.91101       83.08383
H         29.17662       48.84785       84.25628
H         28.65662       49.67246       82.74430
H         31.55946       49.68061       81.36038
H         31.37145       48.10417       80.56732
H         29.99594       49.26716       80.56417
H         29.78065       51.19407       84.36482
H         31.27174       50.17928       84.31745
H         30.72979       51.09918       82.85219
N         29.99773       45.57264       80.16061
C         29.12234       46.28074       79.22948
C         29.65125       46.23998       77.79906
O         30.57870       45.49967       77.49886
C         27.67188       45.76014       79.31175
C         27.55504       44.32118       78.88307
O         28.20576       43.35411       79.55775
O         26.85893       44.02205       77.92581
H         30.62062       44.83949       79.78714
H         29.14682       47.35719       79.48589
H         27.02378       46.38873       78.66238
H         27.29086       45.84933       80.34921
N         29.12513       47.08842       76.87333
C         29.58657       47.18427       75.49476
C         30.26371       48.53363       75.31434
O         29.63777       49.52368       75.67513
C         28.37452       47.07552       74.54384
C         28.81306       47.01558       73.10002
C         29.49892       45.88346       72.62585
C         28.54975       48.07765       72.21761
C         29.91951       45.81727       71.29534
C         28.97960       48.00994       70.88746
C         29.66333       46.88092       70.42722
H         28.38823       47.74539       77.17712
H         30.28307       46.35876       75.26091
H         27.70678       47.94943       74.71823
H         27.78221       46.16110       74.76402
H         29.70596       45.05170       73.28757
H         28.02615       48.96171       72.55929
H         30.44625       44.94150       70.93912
H         28.78465       48.83336       70.21253
H         29.99446       46.82926       69.39806
N         31.50296       48.70342       74.75155
C         32.31663       47.68393       74.09389
C         32.85904       46.57630       74.97277
O         32.72531       45.41660       74.60593
C         33.49371       48.47935       73.50680
C         32.85161       49.81658       73.21640
C         32.04895       50.02269       74.49152
H         31.73006       47.26905       73.24749
H         34.26427       48.66908       74.28899
H         33.99032       47.98764       72.64293
H         33.56357       50.63636       72.98348
H         32.14462       49.69108       72.36414
H         32.72485       50.29602       75.33306
H         31.28320       50.81484       74.34353
N         33.54746       46.86148       76.11369
C         34.29344       45.84786       76.85197
C         35.50309       45.43613       76.01870
O         36.24505       46.31872       75.60896
C         34.80897       46.38929       78.19892
C         33.66995       46.72022       79.17245
C         34.22687       47.13483       80.50476
O         34.90374       46.35515       81.15676
O         33.98243       48.36597       80.98971
H         33.59341       47.84267       76.42928
H         33.63113       44.98900       77.09053
H         35.44470       47.28896       78.03987
H         35.43588       45.59457       78.66312
H         33.02645       45.82618       79.32422
H         33.04377       47.53676       78.75464
N         35.81375       44.14176       75.73142
C         35.06469       43.00710       76.21910
H         34.02570       43.03521       75.83246
H         35.54656       42.06675       75.87584
H         35.06197       43.00936       77.33041
H         36.65402       43.95226       75.16239
Ca        32.91584       37.02688       89.73504
O         34.65231       39.45103       88.81401
H         35.63784       39.38522       88.88302
H         34.44725       40.38962       89.05335
O         35.92339       36.57636       90.35528
H         36.60526       36.00225       89.92489
H         36.44445       37.21614       90.90246
O         35.07779       35.79088       87.38152
H         35.48450       34.93470       87.66814
H         34.92212       35.67966       86.41018

Ca 1.0



