%chk=apoCaM-CA-Ng.loop1.water3.frame212.chk
%nprocshared=20
%mem=10GB
%nosave
#b3lyp/svp scf=(tight,noincore,xqc) Test 
#IOP(5/87=12) Density=Current Pop=(MK,readradii) iop(6/33=2) iop(6/42=6)

apoCaM-CA-Ng.loop1.water3.frame212 

   0  1 
C          9.01942       30.07951       68.38001
C          8.76565       29.24921       69.60309
O          9.16175       28.09258       69.62633
H          8.60478       31.10401       68.49168
H         10.11227       30.15891       68.20425
H          8.53870       29.59967       67.50263
N          8.11289       29.78134       70.67312
C          7.86436       29.03507       71.90144
C          6.87746       27.87401       71.73861
O          6.63146       27.21239       72.73030
C          7.41765       29.98493       73.04445
C          6.06929       30.62703       72.86411
O          5.11096       30.41847       73.78623
O          5.84756       31.37347       71.92471
H          7.84454       30.77500       70.62804
H          8.83711       28.61946       72.23756
H          8.18093       30.78267       73.17441
H          7.38575       29.40495       73.98928
N          6.26399       27.55518       70.56010
C          5.25279       26.50204       70.45047
C          5.67938       25.39772       69.49399
O          6.08735       25.73244       68.39060
C          3.92662       27.11985       69.97534
C          3.35474       28.05328       71.05038
C          1.95176       28.55013       70.68621
C          1.25345       29.25395       71.86383
N          1.95508       30.45965       72.30121
H          6.46933       28.09627       69.70982
H          5.04748       26.05682       71.43027
H          3.19716       26.29588       69.81693
H          4.05904       27.65642       69.01008
H          4.04226       28.90888       71.21849
H          3.27803       27.47406       71.98858
H          1.32105       27.67218       70.42488
H          2.00492       29.21914       69.80043
H          1.16742       28.54544       72.71903
H          0.22425       29.52928       71.54666
H          2.04693       31.13442       71.50841
H          1.40938       30.90743       73.07254
H          2.89602       30.21519       72.67557
N          5.55684       24.05237       69.76326
C          5.01665       23.42008       70.97436
C          3.60196       23.89664       71.29373
O          3.40486       24.51873       72.32558
C          5.98210       23.52752       72.18065
C          7.24910       22.74218       71.99685
O          7.47067       22.13099       70.96341
O          8.12687       22.66671       73.01424
H          5.82828       23.40305       69.00786
H          4.93254       22.32530       70.80185
H          5.47814       23.07426       73.05865
H          6.23915       24.57259       72.43064
N          2.53078       23.61166       70.50212
C          2.61350       22.73675       69.34439
C          1.26092       22.45986       68.70334
O          0.27213       23.06450       69.09200
H          1.61502       23.97888       70.80142
H          3.00305       21.76130       69.70564
H          3.30221       23.16162       68.58404
N          1.10081       21.50680       67.73781
C          2.17788       20.66133       67.23078
C          2.02055       19.24580       67.75195
O          0.99634       18.91882       68.33780
C          2.28305       20.72517       65.69030
C          1.06767       20.20701       64.96145
O         -0.12087       20.83011       65.07222
O          1.16609       19.23819       64.22562
H          0.14137       21.32638       67.40889
H          3.15267       21.01332       67.61942
H          3.16692       20.12775       65.37600
H          2.46366       21.77574       65.37659
N          3.05700       18.37042       67.64267
C          3.04098       17.03371       68.20987
C          2.82021       17.07216       69.70751
O          1.90543       16.41800       70.18719
H          3.92257       18.67879       67.17331
H          4.02526       16.55484       68.01495
H          2.25645       16.42024       67.71519
N          3.62002       17.83944       70.50273
C          3.48417       17.92847       71.95631
C          3.05456       19.33447       72.34602
O          3.73323       20.29134       72.00249
C          4.78575       17.47833       72.66158
C          6.04143       18.26720       72.26378
O          4.99822       16.11908       72.37546
H          4.34771       18.40844       70.04537
H          2.69387       17.23093       72.31166
H          4.61780       17.61040       73.75786
H          5.40678       15.70922       73.18234
H          5.94143       19.34596       72.49395
H          6.91020       17.88022       72.83445
H          6.26629       18.14025       71.18502
N          1.88699       19.52936       73.02766
C          1.30860       20.85654       73.22839
C          1.84380       21.59388       74.44946
O          1.50123       22.76139       74.58475
C         -0.25256       20.80819       73.23649
C         -0.82374       20.03802       74.46074
C         -0.76291       20.23213       71.90010
C         -2.34548       20.14868       74.58825
H          1.32313       18.70016       73.25931
H          1.58412       21.48017       72.34758
H         -0.61085       21.86014       73.30137
H         -0.39538       20.46558       75.39228
H         -0.55118       18.96315       74.42038
H         -1.86593       20.29662       71.82552
H         -0.34533       20.81369       71.05073
H         -0.46319       19.16969       71.77939
H         -2.64721       21.21468       74.66919
H         -2.86385       19.68367       73.72609
H         -2.67926       19.61833       75.50515
N          2.64770       21.01393       75.39321
C          3.12074       21.77879       76.54988
C          4.05351       22.87068       76.06313
O          5.11607       22.55306       75.54581
C          3.83736       20.88998       77.59900
C          2.89853       19.82954       78.18225
O          4.29455       21.68747       78.66402
H          2.90401       20.02059       75.29986
H          2.23743       22.23174       77.05551
H          4.69512       20.35528       77.12520
H          5.21597       21.98205       78.44010
H          2.52325       19.14307       77.39671
H          3.44303       19.22382       78.93791
H          2.03127       20.31453       78.68020
N          3.69175       24.18355       76.14777
C          4.51909       25.25164       75.59255
C          5.82468       25.41326       76.35828
O          5.99159       24.80936       77.40942
C          3.73032       26.58853       75.49669
C          3.35906       27.19385       76.85227
O          2.54047       26.38590       74.77981
H          2.76573       24.41023       76.53883
H          4.77060       24.96174       74.55004
H          4.35717       27.34758       74.97103
H          2.77842       26.37667       73.82142
H          2.82156       28.15257       76.68478
H          2.69183       26.51941       77.42542
H          4.26167       27.40336       77.45734
N          6.80815       26.21381       75.85793
C          8.08635       26.44322       76.51324
C          9.20859       25.85073       75.66671
O          9.89335       24.95709       76.14353
C          8.30084       27.96023       76.75938
C          7.12420       28.60016       77.51855
C          7.35170       30.09251       77.80129
C          6.14018       30.69713       78.53173
N          6.36193       32.10688       78.85425
H          6.64334       26.68389       74.96541
H          8.10107       25.94063       77.50600
H          8.41052       28.49529       75.79565
H          9.24182       28.10114       77.33432
H          6.97316       28.06574       78.48111
H          6.20690       28.50471       76.90037
H          7.50794       30.63855       76.84428
H          8.25880       30.20947       78.43265
H          5.95626       30.13619       79.47484
H          5.23499       30.60585       77.88967
H          7.18935       32.20399       79.48667
H          6.51685       32.65984       77.98035
H          5.51847       32.48176       79.34655
N          9.46872       26.32171       74.41080
C         10.56988       25.86099       73.56665
C         11.61724       26.95018       73.52689
O         11.32532       28.05732       73.09626
C         10.06018       25.48986       72.14562
C         11.16077       25.35893       71.06451
C         12.28475       24.41213       71.39830
O         12.10330       23.08002       71.45939
O         13.40918       24.85684       71.56449
H          8.90069       27.10337       74.05768
H         11.04591       24.95200       73.99362
H          9.37688       26.28544       71.78145
H          9.47197       24.55745       72.20985
H         11.59742       26.37063       70.91558
H         10.70371       25.06380       70.09533
N         12.87962       26.68142       73.96650
C         13.95653       27.64612       73.96242
H         14.78160       27.26570       73.32424
H         13.63612       28.63529       73.57611
H         14.33329       27.77294       74.99859
H         13.10287       25.73756       74.31803
Ca        10.22550       22.00776       70.85693
O          9.06520       18.83918       70.72694
H          9.08356       18.05857       71.33596
H          8.52117       18.53926       69.95581
O          8.86834       19.73987       73.96107
H          8.66290       18.87351       74.39363
H          8.23192       20.37634       74.37300
O         11.14498       22.04940       74.06753
H         10.89180       22.45084       74.93594
H         12.11120       22.24594       73.97744

Ca 1.0



