%chk=apoCaM-CA-Ng.loop3.water4.frame168.chk
%nprocshared=20
%mem=10GB
%nosave
#b3lyp/svp scf=(tight,noincore,xqc) Test 
#IOP(5/87=12) Density=Current Pop=(MK,readradii) iop(6/33=2) iop(6/42=6)

apoCaM-CA-Ng.loop3.water4.frame168 

   0  1 
C         53.27489       51.29416       24.50545
C         51.94535       50.77279       24.96493
O         51.23870       51.47781       25.67188
H         54.08216       50.62269       24.86736
H         53.30039       51.33213       23.39655
H         53.45842       52.31478       24.90488
N         51.54775       49.51717       24.61428
C         50.28666       48.93573       25.07156
C         49.07086       49.69316       24.55804
O         49.19405       50.54541       23.68996
C         50.17016       47.42986       24.72049
C         50.23726       47.11968       23.24809
O         49.27056       46.64529       22.67334
O         51.38938       47.28553       22.57416
H         52.20057       48.95419       24.05312
H         50.27804       49.01123       26.18127
H         49.20595       47.04960       25.12137
H         50.98015       46.86285       25.22475
N         47.84770       49.43554       25.10533
C         46.62078       50.11615       24.70778
C         46.76161       51.61246       24.84629
O         47.01486       52.11118       25.93543
C         45.42349       49.62204       25.54732
C         44.96747       48.23952       25.06719
C         43.84740       47.66652       25.94263
C         43.16659       46.44598       25.29664
N         44.10174       45.36214       24.99079
H         47.79616       48.73645       25.86184
H         46.41078       49.88934       23.63898
H         44.55599       50.30706       25.41198
H         45.69586       49.62479       26.62702
H         45.82160       47.53029       25.06041
H         44.59263       48.36291       24.02650
H         43.05680       48.43414       26.09162
H         44.26586       47.40129       26.93864
H         42.66134       46.76589       24.35786
H         42.38416       46.07239       25.99330
H         43.56229       44.55166       24.60949
H         44.78382       45.66129       24.25738
H         44.60795       45.06204       25.85431
N         46.58981       52.38622       23.74060
C         46.68472       53.83246       23.72241
C         45.33101       54.41369       23.33511
O         44.44055       53.67085       22.93578
C         47.80324       54.19415       22.71986
C         47.99299       55.66095       22.50244
O         47.79893       56.13125       21.39638
O         48.36850       56.48363       23.49481
H         46.36630       51.92471       22.84321
H         46.94118       54.22049       24.73249
H         47.55656       53.72634       21.73909
H         48.76538       53.75873       23.06637
N         45.08892       55.74485       23.46844
C         43.82992       56.36453       23.10304
C         43.58313       56.22388       21.62675
O         42.51955       55.75168       21.25229
H         45.82177       56.35412       23.85925
H         43.86593       57.44193       23.34865
H         42.99443       55.92350       23.69063
N         44.54286       56.59674       20.72830
C         44.36630       56.46852       19.28676
C         45.32980       55.43600       18.70741
O         45.95310       55.67814       17.68285
C         44.41749       57.86210       18.61943
C         45.75998       58.55514       18.67640
N         46.35390       58.97420       17.53750
O         46.29822       58.77919       19.75020
H         45.43417       56.95968       21.08925
H         43.35058       56.06894       19.07980
H         43.67640       58.51610       19.12802
H         44.10109       57.76270       17.55926
H         45.91628       58.82313       16.61757
H         47.24333       59.48189       17.58056
N         45.44400       54.21815       19.31493
C         46.19186       53.07662       18.79978
C         47.70512       53.20726       18.67787
O         48.30454       52.21834       18.28575
H         44.89871       54.05397       20.17453
H         45.78094       52.80481       17.80348
H         46.00402       52.21799       19.48212
N         48.39412       54.35605       18.93458
C         49.83747       54.49731       18.71793
C         50.23017       55.95299       18.72325
O         50.03745       56.63000       19.72403
C         50.72794       53.81398       19.78378
C         50.83102       52.32045       19.69525
C         51.23697       51.71327       18.49387
C         50.58898       51.52322       20.82206
C         51.37868       50.32996       18.41589
C         50.74601       50.13624       20.74471
C         51.13812       49.53574       19.53698
O         51.29517       48.20209       19.43521
H         47.86293       55.19371       19.19250
H         50.08224       54.10495       17.70902
H         50.42763       54.15350       20.80046
H         51.77298       54.16292       19.61770
H         51.44708       52.30662       17.61407
H         50.30148       51.97756       21.76192
H         51.68505       49.87509       17.48289
H         50.56941       49.53661       21.62426
H         51.13832       47.60321       20.17469
N         50.81329       56.49107       17.61823
C         51.21603       57.87926       17.53395
C         50.21379       58.55236       16.64672
O         49.53747       59.43971       17.13056
C         52.68388       58.02063       17.05301
C         53.67311       57.21031       17.93403
C         53.09790       59.50306       16.98719
C         53.70316       57.60539       19.41482
H         50.93394       55.90461       16.77800
H         51.14657       58.36429       18.52848
H         52.76351       57.60455       16.02423
H         54.69795       57.32706       17.51930
H         53.41487       56.13097       17.87313
H         53.01346       59.99205       17.97952
H         54.14331       59.59523       16.62462
H         52.44923       60.06214       16.28619
H         53.99995       58.66533       19.54606
H         52.71733       57.43612       19.89014
H         54.44492       56.97436       19.94722
N         49.99137       58.13403       15.36921
C         48.88945       58.66129       14.57408
C         49.00830       60.15539       14.33927
O         47.98378       60.79112       14.13727
C         48.76929       57.92086       13.23079
O         48.64323       56.53707       13.42901
H         50.57207       57.37400       14.98329
H         47.95208       58.47423       15.14443
H         49.68175       58.10351       12.62367
H         47.89936       58.29571       12.64555
H         47.75752       56.38516       13.85061
N         50.22503       60.77894       14.33661
C         50.42918       62.20112       14.07636
C         49.84533       63.12813       15.14162
O         49.90527       64.33251       14.93610
C         49.91711       62.56303       12.67405
H         51.07069       60.20903       14.47642
H         51.52520       62.39457       14.06464
H         50.18573       63.61229       12.42949
H         50.39443       61.90144       11.92009
H         48.81657       62.46540       12.59315
N         49.33249       62.66891       16.32276
C         48.79501       63.54815       17.35731
C         49.68982       63.56370       18.57879
O         50.60734       62.75958       18.66889
C         47.38807       63.08098       17.74623
H         49.35575       61.66765       16.52500
H         48.74184       64.59181       16.98168
H         46.72492       63.07740       16.85649
H         47.42914       62.04812       18.15989
H         46.94639       63.74700       18.51703
N         49.49588       64.51143       19.54798
C         50.27586       64.61841       20.78171
C         51.76874       64.85284       20.54099
O         52.51096       64.85197       21.51431
C         50.06868       63.36515       21.65546
C         48.58597       63.06874       21.92921
C         48.48383       61.77369       22.66792
O         47.98228       60.70341       22.03161
O         48.94765       61.65713       23.79018
H         48.73742       65.19763       19.41566
H         49.89368       65.48294       21.36967
H         50.59424       63.49716       22.62794
H         50.52042       62.48935       21.14711
H         48.05471       62.95146       20.96044
H         48.09838       63.88784       22.50081
N         52.28818       65.06501       19.29470
C         53.70652       65.20282       19.03296
H         54.32399       65.07806       19.94684
H         54.01429       64.42338       18.30331
H         53.90862       66.20218       18.59656
H         51.67183       65.13647       18.47529
Ca        48.35302       58.61625       22.78150
O         45.67354       59.02583       23.16811
H         45.96591       59.49288       23.99008
H         45.10769       59.67767       22.68589
O         50.06657       58.92970       25.12370
H         50.62623       58.14528       24.89799
H         50.38247       59.63828       24.50919
O         51.40743       58.06233       22.17349
H         52.11666       57.57301       22.66025
H         51.75654       58.98508       22.08905
O         49.93823       59.78404       20.24228
H         49.14587       59.88355       19.65827
H         50.57964       60.46124       19.91376

Ca 1.0



