%chk=apoCaM-CA-Ng.loop3.water2.frame530.chk
%nprocshared=20
%mem=10GB
%nosave
#b3lyp/svp scf=(tight,noincore,xqc) Test 
#IOP(5/87=12) Density=Current Pop=(MK,readradii) iop(6/33=2) iop(6/42=6)

apoCaM-CA-Ng.loop3.water2.frame530 

   0  1 
C         66.30754        9.03224       70.67356
C         65.84535        8.27128       71.87799
O         65.08837        7.32097       71.73775
H         67.41391        8.95764       70.59984
H         65.86072        8.61625       69.74626
H         66.02054       10.09952       70.77126
N         66.29859        8.62704       73.10989
C         65.97257        7.88230       74.31764
C         64.48995        7.97160       74.61561
O         64.00372        9.05410       74.91600
C         66.80480        8.43546       75.48844
C         66.86853        7.56599       76.70398
O         67.60896        7.90384       77.61366
O         66.27747        6.35801       76.76801
H         66.95153        9.42459       73.17128
H         66.27683        6.82705       74.14446
H         66.46379        9.45757       75.75753
H         67.85887        8.51056       75.14590
N         63.69976        6.86893       74.51304
C         62.27085        6.89594       74.79806
C         62.06573        7.10343       76.29031
O         61.47761        8.10647       76.66921
C         61.62845        5.59643       74.27593
C         60.11306        5.44067       74.50880
C         59.22005        6.53341       73.89221
C         59.39638        6.69079       72.37269
N         58.42707        7.64516       71.83260
H         64.12997        5.98745       74.19038
H         61.80826        7.73294       74.22823
H         62.14597        4.74708       74.75130
H         61.83068        5.51750       73.18579
H         59.91143        5.40016       75.60064
H         59.81024        4.46047       74.07798
H         59.41398        7.50784       74.38831
H         58.16467        6.24968       74.10071
H         59.25490        5.70849       71.87016
H         60.42303        7.05574       72.15272
H         58.52109        8.57083       72.31035
H         58.60248        7.77254       70.80963
H         57.45567        7.27919       71.96315
N         62.54616        6.20065       77.19961
C         62.40926        6.38565       78.64680
C         63.24172        7.55605       79.19139
O         63.07127        7.89912       80.35315
C         62.69562        5.06675       79.40435
C         64.07228        4.49628       79.18611
O         65.16703        5.17721       79.55504
O         64.20091        3.38353       78.70492
H         62.99831        5.34469       76.84542
H         61.33994        6.61866       78.85098
H         61.94915        4.31362       79.06571
H         62.53955        5.22297       80.49326
N         64.12604        8.23905       78.40736
C         64.83759        9.44644       78.80336
C         65.93335        9.30713       79.85086
O         66.59259       10.30837       80.08006
H         64.25125        7.94703       77.43172
H         64.10549       10.21559       79.13243
H         65.33979        9.84627       77.89600
N         66.19232        8.15163       80.53630
C         67.24426        8.05487       81.55527
C         68.16483        6.86002       81.31545
O         67.91707        6.06146       80.43053
C         66.59021        7.91930       82.94390
C         65.69103        9.09009       83.25424
N         64.37140        8.90286       83.49001
O         66.15947       10.21802       83.29663
H         65.59765        7.33587       80.38591
H         67.87423        8.97079       81.55177
H         67.36939        7.87124       83.73409
H         66.00876        6.97209       82.97810
H         63.95703        7.95994       83.46130
H         63.75955        9.70439       83.70300
N         69.25836        6.68395       82.11676
C         70.15946        5.53840       82.06344
C         70.83552        5.37723       80.72509
O         71.38409        6.34909       80.22296
H         69.45983        7.39761       82.83156
H         69.61372        4.61174       82.33929
H         70.95508        5.69740       82.82395
N         70.88950        4.15287       80.11215
C         71.54426        3.95286       78.82146
C         70.60922        4.41518       77.66665
O         69.95592        5.59295       77.99405
C         71.91230        2.46754       78.59313
C         72.87393        1.89064       79.60907
C         74.17013        2.41586       79.76234
C         72.49230        0.78193       80.38481
C         75.06450        1.83882       80.67254
C         73.38765        0.20661       81.29094
C         74.67888        0.73152       81.43597
O         75.55618        0.17718       82.29755
H         70.51110        3.33362       80.61061
H         72.48852        4.54225       78.81316
H         72.39084        2.35372       77.59667
H         70.97850        1.87025       78.58278
H         74.49583        3.26174       79.17067
H         71.50423        0.35184       80.28087
H         76.06264        2.24600       80.77804
H         73.07861       -0.65236       81.87341
H         75.33265       -0.59851       82.83220
N         71.31624        4.47327       76.36222
C         70.96895        5.45614       75.30042
C         69.60251        5.22804       74.65645
O         68.58787        5.45621       75.28932
C         71.12735        6.96403       75.71046
C         70.91792        7.93527       74.51076
C         72.46971        7.24462       76.40622
C         71.93553        7.80834       73.37243
H         72.35164        4.51595       76.51066
H         71.73113        5.27417       74.51412
H         70.33126        7.23758       76.42961
H         70.95593        8.97995       74.88948
H         69.90448        7.78643       74.08159
H         72.55096        6.66552       77.34842
H         73.32633        6.97807       75.75447
H         72.53911        8.31917       76.67968
H         71.69310        8.55275       72.58526
H         72.96379        8.01490       73.73151
H         71.90057        6.80511       72.90396
N         69.52319        4.90391       73.33347
C         68.29097        4.95511       72.53938
C         67.22666        3.90809       72.87775
O         66.21441        3.90087       72.18911
C         68.64700        4.84440       71.04136
O         69.49718        5.89699       70.66162
H         70.40942        4.73761       72.83365
H         67.83436        5.95898       72.67023
H         67.73060        4.92142       70.41766
H         69.10567        3.85209       70.81944
H         70.42004        5.53479       70.61788
N         67.34418        3.01339       73.90115
C         66.35742        1.96524       74.15868
C         65.58106        2.24432       75.43342
O         66.21495        2.53253       76.43637
C         67.07291        0.61502       74.23131
H         68.16324        3.05181       74.52158
H         65.64907        1.89651       73.33195
H         66.34284       -0.20303       74.40282
H         67.59691        0.41697       73.27170
H         67.81699        0.60544       75.05446
N         64.21306        2.17398       75.52675
C         63.28317        1.74826       74.47625
C         63.56920        0.30647       74.08710
O         63.57434       -0.52405       74.98626
C         61.83650        1.79182       75.00864
H         63.80339        2.40449       76.44403
H         63.34512        2.45270       73.62416
H         61.56214        2.79629       75.37169
H         61.12007        1.50302       74.21087
H         61.70879        1.09861       75.86803
N         63.82913       -0.12254       72.81678
C         63.83059        0.68664       71.60004
C         64.75874        0.03728       70.58910
O         65.73516        0.66140       70.19543
C         62.39690        0.85999       71.05925
C         62.36208        1.74219       69.79923
C         60.95704        1.93946       69.30934
O         60.28627        0.98175       68.95825
O         60.43555        3.17927       69.23882
H         64.04604       -1.12714       72.71948
H         64.23369        1.69606       71.79560
H         61.77605        1.34477       71.84283
H         61.95474       -0.13496       70.83451
H         62.95582        1.27464       68.98458
H         62.80685        2.73388       70.03461
N         64.53522       -1.23229       70.15017
C         65.43954       -1.89963       69.24092
H         66.44951       -1.96934       69.70001
H         65.07590       -2.92839       69.03394
H         65.50301       -1.33907       68.28516
H         63.71152       -1.75330       70.48637
Ca        67.75185        5.03973       77.80305
O         68.64267        1.97092       77.65920
H         68.99509        2.19304       76.76090
H         68.25847        1.06445       77.56081
O         67.70131        3.05433       80.45590
H         67.59264        3.30908       81.40642
H         68.29376        2.26148       80.47807

Ca 1.0



