%chk=apoCaM-CA-Ng.loop3.water5.frame108.chk
%nprocshared=20
%mem=10GB
%nosave
#b3lyp/svp scf=(tight,noincore,xqc) Test 
#IOP(5/87=12) Density=Current Pop=(MK,readradii) iop(6/33=2) iop(6/42=6)

apoCaM-CA-Ng.loop3.water5.frame108 

   0  1 
C         37.51727       80.73132       93.83488
C         38.55383       81.81532       93.83772
O         38.26501       82.93023       93.42667
H         36.56166       81.08947       93.39818
H         37.88425       79.87624       93.22522
H         37.33655       80.38426       94.87202
N         39.81761       81.52618       94.25382
C         40.94189       82.45313       94.21194
C         41.17457       82.92383       92.78056
O         41.33620       84.10905       92.52553
C         40.76821       83.55339       95.28484
C         41.95452       84.46876       95.41033
O         41.78767       85.80200       95.31714
O         43.06462       84.01459       95.63794
H         40.01612       80.56344       94.56712
H         41.84720       81.87086       94.49420
H         40.64179       83.04307       96.26489
H         39.85449       84.15414       95.09206
N         41.16516       81.99336       91.78401
C         41.41091       82.26649       90.37474
C         40.11292       82.30274       89.55848
O         40.18929       82.47776       88.35012
C         42.42705       81.21332       89.86120
C         43.80658       81.44557       90.50194
C         44.87789       80.47499       89.96933
C         46.30663       80.95055       90.30025
N         46.69521       82.11025       89.48529
H         40.94259       81.01695       92.03370
H         41.84979       83.27856       90.23339
H         42.55044       81.32380       88.76301
H         42.06326       80.18006       90.06608
H         43.76633       81.36206       91.61242
H         44.07372       82.48706       90.25430
H         44.80915       80.36389       88.86644
H         44.69468       79.47713       90.42750
H         47.01945       80.12643       90.07495
H         46.39252       81.18656       91.38399
H         46.03045       82.90740       89.57932
H         47.63788       82.44600       89.78467
H         46.74552       81.82994       88.47817
N         38.88613       82.20554       90.15289
C         37.60639       82.29424       89.44119
C         37.36128       83.70882       88.89047
O         37.90206       84.66320       89.43405
C         36.47784       81.89064       90.41912
C         35.15294       81.61442       89.76069
O         34.92132       80.50486       89.30912
O         34.15972       82.51572       89.83411
H         38.85434       82.03967       91.16338
H         37.63256       81.55242       88.61384
H         36.37520       82.65798       91.21914
H         36.77400       80.94698       90.92660
N         36.58330       83.90757       87.78171
C         36.38659       85.21480       87.15182
C         35.48791       86.19266       87.90491
O         35.40771       87.33384       87.47199
H         36.18811       83.08327       87.30675
H         35.93380       85.07395       86.14691
H         37.38577       85.68033       86.99737
N         34.78354       85.83916       89.01818
C         33.99888       86.80239       89.80958
C         33.84336       86.43291       91.30205
O         33.27631       87.23965       92.02643
C         32.58993       87.05523       89.19715
C         31.66853       85.86494       89.31041
N         30.33258       85.99558       89.13881
O         32.12528       84.77859       89.60650
H         34.84843       84.86186       89.29840
H         34.55071       87.76839       89.80262
H         32.64204       87.39027       88.13820
H         32.12435       87.87981       89.77881
H         29.90996       86.91394       88.94454
H         29.71177       85.17858       89.24608
N         34.29938       85.26066       91.83914
C         34.15178       84.86270       93.23049
C         32.72269       84.58537       93.65114
O         31.78733       85.01472       92.99114
H         34.81031       84.58522       91.26953
H         34.61802       85.60886       93.90921
H         34.70410       83.90642       93.35374
N         32.49507       83.85891       94.78596
C         31.15857       83.61305       95.32309
C         30.29807       82.77935       94.39545
O         30.81883       81.94462       93.67526
C         31.18011       82.87070       96.68145
C         32.19252       83.38822       97.67039
C         33.08697       82.48481       98.27278
C         32.26341       84.74941       98.00298
C         34.03252       82.93322       99.19441
C         33.22345       85.19902       98.91507
C         34.10843       84.29044       99.51649
O         35.03305       84.70851      100.40303
H         33.31428       83.51324       95.30726
H         30.68838       84.60880       95.48308
H         31.38326       81.78911       96.50760
H         30.16487       82.94596       97.12910
H         33.04728       81.42727       98.03890
H         31.58954       85.46301       97.54734
H         34.70658       82.22255       99.65650
H         33.27813       86.25293       99.15364
H         35.12047       85.63882      100.65313
N         28.94596       82.86285       94.49262
C         27.99805       82.03488       93.75044
C         27.11874       82.97316       92.94597
O         27.08491       82.86268       91.72791
C         27.20016       81.15104       94.75238
C         28.14267       80.26776       95.62102
C         26.13785       80.29049       94.04719
C         28.89110       79.15932       94.87006
H         28.56787       83.54611       95.16451
H         28.52464       81.35895       93.04027
H         26.66964       81.82776       95.45768
H         27.54862       79.78453       96.42586
H         28.88862       80.91811       96.12301
H         25.38616       80.93044       93.54382
H         26.59843       79.63274       93.28060
H         25.60430       79.65981       94.79020
H         28.18024       78.40141       94.48053
H         29.49684       79.55869       94.03319
H         29.57929       78.64488       95.57401
N         26.45780       83.99330       93.56826
C         25.88032       85.10836       92.83174
C         24.49419       84.81375       92.29322
O         23.99778       85.62194       91.51992
C         25.86724       86.36960       93.71607
O         27.11899       86.60045       94.31747
H         26.53752       84.07873       94.59083
H         26.55746       85.33188       91.97336
H         25.12545       86.22227       94.52860
H         25.57026       87.26190       93.12354
H         27.82431       86.47584       93.63017
N         23.82648       83.65940       92.61006
C         22.55274       83.25663       92.01887
C         22.66719       83.04417       90.51045
O         21.64787       82.80429       89.87814
C         21.42600       84.23561       92.39404
H         24.24596       83.00338       93.28140
H         22.25426       82.27752       92.45321
H         20.45412       83.85725       92.00756
H         21.33892       84.29830       93.50045
H         21.58592       85.25365       91.98723
N         23.87350       83.10543       89.86657
C         24.04417       82.94746       88.43317
C         25.09613       81.89126       88.13084
O         25.70455       81.36089       89.05140
C         24.42082       84.31134       87.85695
H         24.73567       83.28748       90.39309
H         23.09411       82.62147       87.95836
H         24.58918       84.25873       86.76337
H         23.58259       85.01809       88.04773
H         25.33066       84.71007       88.35559
N         25.31467       81.49156       86.84108
C         26.22123       80.40919       86.45181
C         25.79542       79.06150       87.03096
O         26.54521       78.10485       86.88579
C         27.68381       80.70162       86.84679
C         28.18775       82.05494       86.34738
C         29.63763       82.19328       86.70373
O         30.46072       82.41515       85.83179
O         30.01520       82.04939       87.99511
H         24.78099       81.95036       86.08777
H         26.20411       80.31530       85.34272
H         28.32818       79.90458       86.40971
H         27.80340       80.66148       87.95026
H         27.61606       82.86906       86.84247
H         28.04955       82.14266       85.24641
N         24.61267       78.90329       87.69579
C         24.21425       77.67171       88.33984
H         23.26858       77.30835       87.88888
H         24.98523       76.87849       88.25588
H         24.04469       77.87768       89.41810
H         23.94248       79.67939       87.76517
Ca        32.07090       82.27687       88.95093
O         33.34422       83.29321       86.67598
H         32.73225       82.52459       86.57641
H         33.53439       83.55973       85.74474
O         32.88145       80.94333       91.79594
H         31.94886       80.66498       91.96491
H         33.42974       80.23371       92.21317
O         30.40312       79.91102       89.92534
H         29.48421       80.17281       90.18391
H         30.31311       78.99016       89.57494
O         32.44596       79.83941       87.36460
H         32.94406       79.45482       86.60117
H         32.20328       79.05973       87.92349
O         30.14900       82.89165       90.99021
H         30.89815       83.37237       91.41784
H         29.40029       83.53449       91.02264

Ca 1.0



