%chk=apoCaM-CA-Ng.loop3.water5.frame432.chk
%nprocshared=20
%mem=10GB
%nosave
#b3lyp/svp scf=(tight,noincore,xqc) Test 
#IOP(5/87=12) Density=Current Pop=(MK,readradii) iop(6/33=2) iop(6/42=6)

apoCaM-CA-Ng.loop3.water5.frame432 

   0  1 
C         75.11084       70.99554       96.61779
C         73.89848       70.11216       96.65947
O         72.83443       70.52706       96.22436
H         75.90977       70.50689       96.02141
H         74.87237       71.98088       96.16440
H         75.48326       71.15914       97.65179
N         73.99850       68.86603       97.19877
C         72.89898       67.91684       97.33547
C         71.81280       68.48496       98.24382
O         70.64103       68.47996       97.89231
C         72.39880       67.46313       95.94167
C         71.42919       66.30869       95.97390
O         71.05934       65.73309       97.13515
O         70.98305       65.87411       94.92435
H         74.91882       68.56916       97.56025
H         73.31583       67.02073       97.84835
H         73.27731       67.13459       95.34440
H         71.92270       68.31685       95.41495
N         72.16848       69.02442       99.44213
C         71.22904       69.56269      100.42209
C         71.24827       71.08185      100.43563
O         70.56707       71.66910      101.26577
C         71.62047       69.02903      101.81138
C         71.53356       67.50153      101.88136
C         72.09636       66.99215      103.20945
C         71.99597       65.46597      103.28999
N         72.61410       64.96860      104.51726
H         73.17436       69.08852       99.66614
H         70.18371       69.26144      100.18847
H         70.95638       69.45803      102.59414
H         72.66367       69.35464      102.02641
H         72.13212       67.04812      101.06171
H         70.47194       67.19257      101.76116
H         71.54198       67.44644      104.05969
H         73.16597       67.29186      103.27953
H         72.51113       65.00989      102.41508
H         70.92433       65.16716      103.26310
H         72.50989       63.92920      104.55428
H         73.63314       65.20593      104.52272
H         72.14891       65.38982      105.35370
N         71.97122       71.79060       99.52391
C         72.01045       73.24693       99.48018
C         70.59674       73.81917       99.30305
O         69.72228       73.12537       98.80099
C         72.98099       73.64762       98.34371
C         73.20216       75.11052       98.17789
O         72.15200       75.87795       97.88734
O         74.32391       75.58617       98.21230
H         72.51888       71.27817       98.82037
H         72.42163       73.60418      100.44987
H         72.58045       73.26083       97.38091
H         73.96570       73.16197       98.52270
N         70.29168       75.06386       99.77521
C         68.95374       75.64464       99.74870
C         68.40928       75.80149       98.34623
O         67.36519       75.23641       98.05331
H         71.03799       75.61657      100.22158
H         68.98512       76.64790      100.22654
H         68.26982       75.00538      100.34989
N         69.08201       76.53985       97.41912
C         68.66086       76.67515       96.02637
C         69.50069       75.79860       95.09917
O         69.40833       75.96057       93.89027
C         68.56189       78.16490       95.60129
C         69.82226       79.02458       95.79081
N         69.58260       80.40342       95.38872
O         70.91698       78.53426       95.08509
H         69.96716       76.97460       97.70299
H         67.63092       76.27697       95.89216
H         67.76739       78.62946       96.22527
H         68.23002       78.22536       94.54202
H         68.79038       80.79620       95.94392
H         70.43605       80.94956       95.63995
N         70.19517       74.72636       95.58897
C         70.81542       73.71143       94.74899
C         72.07947       74.14283       94.04007
O         72.62593       73.32020       93.31666
H         70.18990       74.53753       96.59836
H         70.06679       73.34732       94.01155
H         71.09457       72.84704       95.38949
N         72.61633       75.38536       94.18311
C         73.83697       75.80744       93.50407
C         74.03509       77.29869       93.69520
O         74.17711       77.75379       94.82174
C         75.07791       75.04555       94.02084
C         76.33089       75.58065       93.36340
C         76.51763       75.47390       91.97430
C         77.30370       76.23329       94.13645
C         77.65372       76.02330       91.37168
C         78.43434       76.78564       93.53312
C         78.61162       76.68633       92.14662
O         79.69152       77.22925       91.55022
H         72.12379       76.07126       94.77103
H         73.71124       75.60582       92.41684
H         74.99651       73.95629       93.82596
H         75.13349       75.18473       95.12359
H         75.77975       74.97753       91.35673
H         77.17960       76.33215       95.20450
H         77.78324       75.94440       90.29982
H         79.16572       77.29885       94.14432
H         80.36588       77.71053       92.05082
N         74.01573       78.12022       92.61545
C         74.00873       79.56933       92.70981
C         72.55577       79.98903       92.65615
O         72.08950       80.64307       93.57525
C         74.87874       80.19321       91.58002
C         76.36431       79.74596       91.65586
C         74.76983       81.72791       91.56034
C         77.09811       80.12720       92.94747
H         73.84825       77.69906       91.68790
H         74.40613       79.91212       93.68865
H         74.48972       79.83768       90.59961
H         76.91403       80.19559       90.79968
H         76.42084       78.64390       91.53985
H         75.10021       82.17472       92.51990
H         75.38238       82.14430       90.73224
H         73.72107       82.03501       91.37579
H         76.64391       79.62895       93.82792
H         78.15470       79.79252       92.88049
H         77.10069       81.22510       93.10239
N         71.76340       79.57572       91.62999
C         70.33073       79.83271       91.56373
C         70.03615       81.31340       91.51992
O         69.17917       81.76990       92.26430
C         69.72359       79.12805       90.34011
O         70.31182       79.59038       89.15451
H         72.19264       79.01592       90.87888
H         69.83283       79.38965       92.45634
H         68.62735       79.31294       90.31117
H         69.90254       78.03314       90.45376
H         70.09144       78.92153       88.45570
N         70.74252       82.12925       90.68922
C         70.51652       83.55815       90.54153
C         70.48554       84.27751       91.88332
O         69.57436       85.05758       92.12487
C         69.23454       83.79299       89.73090
H         71.51178       81.72005       90.13627
H         71.36366       83.96817       89.94747
H         69.09291       84.87656       89.53408
H         69.30430       83.26582       88.75566
H         68.34903       83.40586       90.27892
N         71.44311       84.03500       92.82151
C         71.46969       84.70160       94.11590
C         72.79897       85.38605       94.28111
O         73.82336       84.71842       94.24324
C         71.23516       83.69986       95.24403
H         72.17474       83.33824       92.61849
H         70.65531       85.45422       94.19324
H         70.23333       83.23810       95.11990
H         72.00919       82.90601       95.24395
H         71.25486       84.22240       96.22549
N         72.85162       86.73647       94.45273
C         74.08678       87.49238       94.59419
C         74.91707       87.34095       93.33170
O         76.06500       86.92070       93.39591
C         74.84842       87.08690       95.88103
C         73.96336       87.20782       97.13148
C         74.72443       86.82247       98.36655
O         75.81664       87.51961       98.73319
O         74.35226       85.88109       99.04916
H         71.96983       87.27070       94.47162
H         73.82122       88.56906       94.69013
H         75.73720       87.74678       95.99053
H         75.20967       86.03919       95.80540
H         73.08187       86.53672       97.02758
H         73.59935       88.25129       97.24181
N         74.36073       87.65326       92.12723
C         75.04973       87.51145       90.86095
H         76.08805       87.13813       90.98178
H         74.49294       86.79466       90.22079
H         75.08491       88.49571       90.34971
H         73.38784       87.99513       92.09898
Ca        72.17648       77.80540       96.80021
O         72.52463       77.84677      100.15151
H         73.16307       77.39512      100.75858
H         71.80650       78.17969      100.74617
O         75.03165       79.45132       99.30881
H         75.62994       79.15468      100.03947
H         75.39937       80.32543       99.02411
O         76.00988       77.71649       97.13234
H         76.71981       78.40199       97.20324
H         76.44454       76.88018       97.43493
O         74.06255       80.52975       96.35329
H         73.72924       81.26257       95.77797
H         75.02476       80.46006       96.13064
O         72.05803       80.55147       98.91959
H         71.53170       81.03917       98.23782
H         72.83826       81.13500       99.09552

Ca 1.0



