%chk=apoCaM-CA-Ng.loop1.water4.frame958.chk
%nprocshared=20
%mem=10GB
%nosave
#b3lyp/svp scf=(tight,noincore,xqc) Test 
#IOP(5/87=12) Density=Current Pop=(MK,readradii) iop(6/33=2) iop(6/42=6)

apoCaM-CA-Ng.loop1.water4.frame958 

   0  1 
C         55.68931       74.24745       42.54754
C         55.23685       74.51671       43.95426
O         54.13478       74.12920       44.31452
H         56.61485       73.63187       42.57153
H         54.91437       73.69079       41.97874
H         55.90591       75.20335       42.02775
N         56.07686       75.14823       44.81989
C         55.77680       75.37288       46.23221
C         55.96737       76.84657       46.62683
O         57.02362       77.40396       46.38273
C         56.60342       74.41334       47.11857
C         58.10193       74.51074       47.01037
O         58.68678       75.28862       46.08418
O         58.79737       73.91935       47.82003
H         56.99868       75.42821       44.45756
H         54.72231       75.09115       46.44580
H         56.31079       73.36315       46.90016
H         56.31893       74.63005       48.17211
N         54.94505       77.52769       47.22572
C         54.92142       78.95331       47.60336
C         55.78771       79.29691       48.84179
O         55.22482       79.62007       49.87905
C         53.42464       79.31413       47.85160
C         53.11038       80.80245       48.09445
C         51.59472       80.97097       48.31049
C         51.15370       82.41954       48.57197
N         51.68367       82.94676       49.83123
H         54.07159       76.99444       47.35968
H         55.24521       79.57180       46.73735
H         53.05241       78.71744       48.71506
H         52.84823       79.00529       46.95040
H         53.43237       81.40137       47.21564
H         53.64900       81.16901       48.98702
H         51.26340       80.34000       49.16504
H         51.06896       80.61461       47.39739
H         50.04185       82.42759       48.62778
H         51.45914       83.07235       47.72540
H         51.27440       83.89398       49.99951
H         51.41471       82.32166       50.62598
H         52.72235       83.04377       49.78738
N         57.15549       79.28982       48.81203
C         57.98991       79.69200       49.95709
C         58.99993       80.76275       49.57291
O         59.44563       80.76694       48.43482
C         58.72476       78.46746       50.55199
C         59.65904       77.73082       49.62196
O         60.13305       76.66467       49.97905
O         59.93787       78.18705       48.38818
H         57.62826       79.00726       47.94894
H         57.35524       80.08328       50.77770
H         57.93904       77.74858       50.86872
H         59.29849       78.76471       51.45569
N         59.53018       81.64372       50.46832
C         59.09205       81.88714       51.83175
C         57.78452       82.65182       51.89185
O         57.06210       82.72152       50.90781
H         60.33329       82.20444       50.15533
H         59.84571       82.57259       52.28044
H         59.07862       80.96672       52.44921
N         57.45941       83.32118       53.03491
C         56.27950       84.17178       53.16963
C         56.32068       85.30441       52.14984
O         55.40327       85.40635       51.34702
C         56.20081       84.72823       54.61461
C         54.96686       85.54096       54.91918
O         54.10423       85.73387       54.07692
O         54.80899       86.05465       56.15402
H         58.10269       83.24074       53.83816
H         55.37335       83.54777       52.99797
H         57.09441       85.35463       54.82476
H         56.21085       83.87116       55.32223
N         57.35654       86.19432       52.12179
C         57.42208       87.30390       51.17866
C         57.59624       86.88580       49.72497
O         57.59766       87.76443       48.87526
H         58.11391       86.10534       52.81606
H         58.29072       87.94954       51.43792
H         56.50245       87.91754       51.28646
N         57.81655       85.58789       49.36691
C         58.09170       85.14524       48.00347
C         59.55231       84.78717       47.95243
O         59.98642       84.01332       48.78517
C         57.25590       83.90103       47.62705
C         55.75111       84.15068       47.69766
O         57.59339       83.51374       46.31807
H         57.89860       84.88046       50.10438
H         57.88143       85.95139       47.26539
H         57.50730       83.08299       48.34273
H         57.50299       82.52714       46.27099
H         55.21469       83.21929       47.41545
H         55.44850       84.42479       48.72887
H         55.45707       84.95915       46.99621
N         60.38724       85.34301       47.03850
C         61.83128       85.13275       47.08401
C         62.54004       86.41594       47.48522
O         63.74214       86.36462       47.70948
C         62.35946       84.45193       45.79422
C         62.03394       85.26201       44.51669
C         61.79743       83.01641       45.72568
C         62.66780       84.67291       43.25409
H         59.99500       85.98188       46.33096
H         62.09522       84.44420       47.91739
H         63.46495       84.36750       45.89210
H         62.42333       86.29520       44.63741
H         60.93513       85.31484       44.36158
H         62.23723       82.44565       44.88512
H         62.05758       82.46056       46.65302
H         60.69164       83.02361       45.62119
H         63.77142       84.62214       43.36572
H         62.27402       83.66000       43.03347
H         62.42586       85.31817       42.38423
N         61.84710       87.57203       47.71360
C         62.40987       88.72344       48.39357
C         62.40394       89.93321       47.49639
O         61.37845       90.25900       46.91239
C         61.58119       89.02278       49.66988
C         61.54490       87.82952       50.63402
O         62.08297       90.15731       50.33429
H         60.84302       87.63566       47.49641
H         63.45340       88.52134       48.72225
H         60.53139       89.24384       49.37380
H         63.02692       89.97085       50.58117
H         61.07892       86.94584       50.14860
H         62.57271       87.56201       50.95930
H         60.94160       88.08982       51.52889
N         63.51615       90.71127       47.44394
C         63.58278       91.97852       46.74282
C         64.84765       92.04198       45.90164
O         64.75364       92.30223       44.71065
C         63.49710       93.12573       47.79044
C         63.50413       94.51546       47.14559
O         64.54010       93.03394       48.72637
H         64.32145       90.44384       48.02946
H         62.70036       92.10855       46.07510
H         62.52161       92.99868       48.31908
H         64.23466       93.49135       49.55311
H         62.65872       94.61307       46.43241
H         63.38888       95.29230       47.93195
H         64.45844       94.69918       46.61051
N         66.07218       91.88510       46.48484
C         67.32340       92.23175       45.82641
C         68.44208       91.26248       46.16868
O         68.62327       90.93760       47.33466
C         67.70822       93.66527       46.26568
C         67.97349       93.80855       47.77706
C         68.10168       95.26802       48.20213
C         68.33404       95.34751       49.71748
N         68.35095       96.73397       50.17418
H         66.11042       91.68338       47.49159
H         67.19273       92.28701       44.72272
H         66.86259       94.32914       45.98094
H         68.60736       94.00519       45.70618
H         68.90155       93.26381       48.05050
H         67.12846       93.38784       48.35390
H         67.15430       95.79384       47.95003
H         68.94163       95.75542       47.66141
H         69.30094       94.85692       49.97003
H         67.51953       94.80588       50.25023
H         68.52310       96.74885       51.20530
H         69.11043       97.26442       49.69005
H         67.42476       97.18046       49.98079
N         69.32869       90.87934       45.20888
C         70.57305       90.19244       45.53357
C         70.34149       88.80854       46.13719
O         70.81930       88.59538       47.24261
C         71.53387       90.20133       44.32323
C         72.94759       89.73381       44.70109
C         73.88082       89.85724       43.53114
O         73.67820       89.21851       42.51089
O         74.94885       90.67503       43.60358
H         69.17593       91.19865       44.23975
H         71.09157       90.81612       46.29952
H         71.61835       91.25340       43.96842
H         71.14404       89.60311       43.48175
H         72.93062       88.67834       45.04541
H         73.33057       90.36990       45.53000
N         69.62770       87.80865       45.54163
C         68.94359       87.91352       44.27181
H         68.18605       88.72239       44.30722
H         69.65584       88.07894       43.44577
H         68.41394       86.96067       44.05827
H         69.53696       86.91305       46.04715
Ca        60.27965       76.64770       46.81502
O         58.31355       77.88818       43.20856
H         57.97970       78.82011       43.18876
H         58.00008       77.49638       42.35517
O         61.89203       79.62660       45.45141
H         62.70038       79.97466       45.90488
H         62.24146       79.04889       44.72750
O         58.76661       79.82212       45.59379
H         57.84687       80.17756       45.68236
H         59.35200       80.60275       45.75843
O         63.21951       76.98915       46.99308
H         62.85208       76.48619       47.76292
H         63.25577       77.92691       47.30769

Ca 1.0



