%chk=apoCaM-CA-Ng.loop3.water3.frame824.chk
%nprocshared=20
%mem=10GB
%nosave
#b3lyp/svp scf=(tight,noincore,xqc) Test 
#IOP(5/87=12) Density=Current Pop=(MK,readradii) iop(6/33=2) iop(6/42=6)

apoCaM-CA-Ng.loop3.water3.frame824 

   0  1 
C         76.16771      100.90549       73.00772
C         77.18398      101.74832       72.29065
O         78.34684      101.71986       72.66521
H         75.16043      101.00207       72.54887
H         76.47056       99.83797       72.93156
H         76.10784      101.19311       74.07569
N         76.82356      102.47395       71.19685
C         77.80158      103.11430       70.31957
C         78.36602      104.41152       70.92520
O         77.81177      104.89905       71.90060
C         77.10895      103.34691       68.94824
C         77.98956      103.49742       67.74021
O         77.46784      103.66802       66.65174
O         79.32128      103.34315       67.80543
H         75.83583      102.42971       70.89903
H         78.60086      102.37453       70.16926
H         76.41016      104.20670       69.03872
H         76.50156      102.44609       68.70755
N         79.44246      105.04506       70.36380
C         79.92962      106.37098       70.75042
C         79.70673      107.38783       69.63097
O         79.86245      108.57173       69.89904
C         81.44528      106.33675       71.05396
C         81.81060      105.62613       72.35970
C         83.34055      105.59076       72.52696
C         83.74800      105.08608       73.91629
N         85.20430      104.99788       74.03546
H         79.93107      104.58823       69.59117
H         79.36466      106.75206       71.62945
H         81.82493      107.37937       71.15019
H         81.97041      105.86483       70.19248
H         81.41500      104.58794       72.37283
H         81.35424      106.19888       73.19681
H         83.76187      106.61290       72.39897
H         83.77192      104.93212       71.74047
H         83.30409      104.08455       74.10421
H         83.36037      105.79503       74.68241
H         85.57368      104.28279       73.36734
H         85.64588      105.92531       73.83693
H         85.45193      104.70881       75.00934
N         79.38527      107.01663       68.35629
C         79.16150      107.96167       67.26691
C         77.79801      107.76849       66.60967
O         77.49346      108.52377       65.69679
C         80.31960      107.88888       66.24042
C         80.53512      106.56075       65.56088
O         79.76885      105.49534       65.84593
O         81.43223      106.44709       64.74153
H         79.32559      106.02146       68.12688
H         79.17297      109.00367       67.65584
H         81.26223      108.15496       66.76662
H         80.14538      108.65583       65.45417
N         76.90536      106.81828       67.02711
C         75.57950      106.68218       66.44539
C         75.57266      106.23410       64.99818
O         74.50745      106.28530       64.40005
H         77.12860      106.20804       67.82287
H         75.07243      107.66821       66.52121
H         74.98081      105.94828       67.02765
N         76.68877      105.76117       64.36937
C         76.71264      105.39084       62.95804
C         76.90253      103.89192       62.78546
O         77.16641      103.19703       63.75395
C         77.85306      106.16529       62.25354
C         77.71431      107.67086       62.32817
N         78.69634      108.46206       61.83819
O         76.72608      108.18511       62.83112
H         77.55969      105.65375       64.90001
H         75.74291      105.64167       62.47585
H         77.91387      105.87973       61.18170
H         78.81386      105.88420       62.73996
H         79.54307      108.05180       61.41793
H         78.61619      109.48872       61.89059
N         76.73841      103.34577       61.54347
C         76.87686      101.95032       61.13496
C         77.27347      100.94605       62.19919
O         76.48047      100.65776       63.08488
H         76.48251      103.98899       60.77875
H         77.63529      101.93194       60.32468
H         75.91914      101.60758       60.68573
N         78.48953      100.33096       62.12265
C         78.93857       99.26413       63.01889
C         78.97294       99.68153       64.48217
O         78.70795      100.83105       64.80110
C         80.34547       98.78446       62.58361
C         80.33747       98.12746       61.22505
C         79.66533       96.90762       61.04046
C         81.01773       98.70684       60.14062
C         79.67756       96.27486       59.79481
C         81.02225       98.07547       58.89240
C         80.35734       96.85710       58.71564
O         80.38212       96.25432       57.50986
H         79.11747      100.61637       61.35578
H         78.21782       98.42014       62.94783
H         80.76482       98.04363       63.29527
H         81.02268       99.66485       62.58768
H         79.14344       96.43918       61.86563
H         81.54312       99.64641       60.25874
H         79.16270       95.33033       59.67187
H         81.54830       98.53104       58.06285
H         79.94528       95.40534       57.35039
N         79.25040       98.73643       65.43219
C         79.22673       98.93278       66.88058
C         80.31734       99.88895       67.34059
O         80.36966      101.01202       66.86748
C         77.82097       99.38014       67.38886
C         77.74296       99.44100       68.94267
C         76.70679       98.47660       66.82874
C         77.93410       98.10103       69.66901
H         79.44038       97.77426       65.11221
H         79.42643       97.93911       67.33253
H         77.61736      100.40839       67.01988
H         76.74881       99.84361       69.23401
H         78.50577      100.15033       69.32053
H         76.86252       97.41621       67.11479
H         75.71670       98.81415       67.20204
H         76.67839       98.53039       65.72060
H         77.85206       98.26335       70.76404
H         77.15335       97.36984       69.37700
H         78.93189       97.66233       69.47460
N         81.17713       99.52392       68.33684
C         82.11967      100.46542       68.94015
C         83.42553       99.83441       69.40640
O         84.28065      100.58102       69.86807
C         81.42834      101.14915       70.12236
O         81.04823      100.19455       71.08127
H         80.99753       98.62670       68.80516
H         82.38861      101.24825       68.19918
H         80.55046      101.68121       69.70945
H         82.08220      101.91024       70.59785
H         80.10772      100.38401       71.33205
N         83.65857       98.49119       69.36622
C         84.89486       97.89829       69.86776
C         86.06756       98.25111       68.95315
O         85.81522       98.72040       67.85154
C         84.70883       96.37391       69.93211
H         82.93214       97.85643       69.01184
H         85.05664       98.27403       70.89889
H         85.57917       95.84587       70.34831
H         83.83947       96.13635       70.58247
H         84.51175       95.96836       68.91675
N         87.38031       98.03879       69.27308
C         87.89350       97.66116       70.58715
C         89.31942       97.12583       70.46485
O         90.13891       97.79445       69.84952
C         87.90544       98.88053       71.51816
H         88.07238       98.25530       68.53789
H         87.24699       96.90928       71.05171
H         86.88973       99.29928       71.65433
H         88.28589       98.58242       72.51991
H         88.56035       99.68047       71.11263
N         89.74160       95.96938       71.06029
C         88.91930       95.16710       71.96021
C         87.89772       94.31588       71.21284
O         86.98130       93.81235       71.84789
C         89.83590       94.31966       72.86997
C         89.10238       93.65956       74.04574
C         90.08441       93.02624       74.98881
O         90.81111       92.12181       74.60959
O         90.17295       93.46337       76.25998
H         90.74182       95.72923       70.96462
H         88.39500       95.87585       72.63850
H         90.58758       95.01447       73.30856
H         90.37901       93.55720       72.26801
H         88.39202       92.88634       73.68869
H         88.53503       94.43885       74.60029
N         87.98830       94.09606       69.86965
C         87.01737       93.29282       69.15555
H         86.01563       93.76606       69.21096
H         87.30748       93.20648       68.08693
H         86.96525       92.27262       69.59240
H         88.77567       94.48441       69.33102
Ca        80.09195      103.49842       64.85660
O         82.03943      101.25642       64.45927
H         82.53759      101.14095       65.30646
H         82.69076      101.01751       63.75396
O         82.50157      103.62750       66.75863
H         82.97731      104.35752       66.28894
H         82.91334      103.60013       67.65831
O         80.79841      103.89402       62.04041
H         80.15191      103.22234       61.70682
H         81.52091      103.35840       62.45515

Ca 1.0



