%chk=apoCaM-CA-Ng.loop4.water2.frame373.chk
%nprocshared=20
%mem=10GB
%nosave
#b3lyp/svp scf=(tight,noincore,xqc) Test 
#IOP(5/87=12) Density=Current Pop=(MK,readradii) iop(6/33=2) iop(6/42=6)

apoCaM-CA-Ng.loop4.water2.frame373 

   -3  1 
C         55.83022      110.75511       19.16407
C         56.83692      111.86358       19.17356
O         56.96404      112.54716       18.16998
H         55.30569      110.71395       18.18388
H         56.35090      109.78736       19.32302
H         55.08208      110.91276       19.96653
N         57.59615      112.10242       20.28265
C         58.65187      113.10770       20.33129
C         58.09637      114.53508       20.03134
O         59.15100      115.36996       19.71046
C         59.92244      112.61482       19.55360
C         59.79401      112.03853       18.14989
O         59.47076      112.79859       17.08546
O         60.05498      110.85967       17.96779
H         57.42860      111.53578       21.12790
H         59.03436      113.17491       21.37680
H         60.32566      111.78249       20.17396
H         60.70424      113.40449       19.56382
N         57.39389      115.05407       21.21843
C         56.73226      116.38832       21.21162
C         57.73080      117.55854       21.14978
O         57.93355      118.19452       22.17531
C         55.54451      116.54153       20.20482
C         54.62195      117.74183       20.58471
C         54.70233      115.26087       20.05511
C         53.81747      117.57184       21.88939
H         56.70820      114.33698       21.55183
H         56.29031      116.42875       22.22846
H         55.96987      116.74082       19.19790
H         53.88525      117.89417       19.76668
H         55.22521      118.66980       20.66692
H         54.28808      114.92505       21.02743
H         53.86773      115.43469       19.34220
H         55.31769      114.43903       19.63758
H         53.18149      118.46654       22.05351
H         53.13858      116.69568       21.83514
H         54.46914      117.46695       22.77916
N         58.41347      117.88669       20.00792
C         59.48848      118.87922       19.98706
C         58.98433      120.31696       20.03427
O         59.48505      121.06326       20.86308
C         60.44503      118.73074       18.77203
C         61.11284      117.38967       18.68722
O         61.05498      116.74607       17.65285
O         61.82817      116.91555       19.72456
H         58.22521      117.36379       19.14228
H         60.15068      118.69562       20.86451
H         61.25579      119.48333       18.88094
H         59.94922      118.93326       17.81097
N         58.07738      120.83476       19.15099
C         57.28045      120.02651       18.24211
C         56.45130      120.86538       17.29372
O         55.78771      121.77397       17.77337
H         57.90233      121.85150       19.18644
H         56.58438      119.42233       18.85726
H         57.90140      119.33456       17.68974
N         56.32965      120.60988       15.94981
C         56.95019      119.52761       15.18412
C         56.63078      118.13858       15.76372
O         57.54459      117.46728       16.22357
C         58.46200      119.80129       14.97261
C         59.11946      118.84727       14.00138
O         58.48505      117.96043       13.45025
O         60.42823      118.98927       13.72184
H         55.68839      121.22041       15.41830
H         56.53340      119.56137       14.15346
H         59.02037      119.77276       15.92116
H         58.57681      120.82295       14.55151
N         55.38509      117.57840       15.72736
C         54.22580      118.17458       15.09215
C         53.61552      119.28048       15.90108
O         54.01631      119.50717       17.03348
H         55.27646      116.62054       16.09053
H         53.43253      117.40390       14.98120
H         54.49656      118.51757       14.07261
N         52.56787      119.97506       15.38388
C         51.86477      121.01858       16.11355
C         50.54105      120.49625       16.65894
O         49.89099      121.21610       17.39951
C         51.81261      122.32596       15.28513
C         51.12870      122.25979       13.90510
C         49.64248      122.05866       13.97863
N         48.85499      122.96799       14.59761
O         49.13854      121.08556       13.44296
H         52.21589      119.69594       14.45529
H         52.43686      121.27995       17.03209
H         52.86917      122.62064       15.09802
H         51.35616      123.13556       15.89328
H         51.59986      121.47177       13.28095
H         51.30104      123.22572       13.38366
H         49.25995      123.80951       15.03192
H         47.83417      122.84235       14.62965
N         50.15621      119.20134       16.43394
C         49.07680      118.52983       17.15192
C         47.97985      118.04034       16.21888
O         47.05710      117.39897       16.71560
C         49.67318      117.34651       17.98330
C         50.68189      117.85253       19.02785
C         50.33832      116.25799       17.11672
H         50.69425      118.61505       15.78806
H         48.59219      119.22449       17.87202
H         48.83840      116.86533       18.54033
H         51.55765      118.33146       18.53942
H         50.19996      118.59100       19.70258
H         51.05050      117.00774       19.64929
H         50.67323      115.41824       17.76163
H         49.62340      115.85183       16.37149
H         51.23373      116.64056       16.58459
N         47.97132      118.31362       14.88256
C         46.92335      117.85670       13.97697
C         47.46675      117.05788       12.79251
O         46.66333      116.56373       12.02191
C         46.15141      119.07380       13.42307
C         45.58540      119.95526       14.50915
N         44.67936      119.48126       15.39451
O         45.94424      121.12001       14.58200
H         48.71478      118.90996       14.49266
H         46.20862      117.19781       14.51865
H         45.31530      118.73088       12.77657
H         46.84359      119.67863       12.79426
H         44.35460      118.50568       15.34886
H         44.29881      120.09780       16.12818
N         48.81037      116.95627       12.53958
C         49.34800      116.35092       11.32594
C         50.43469      115.34733       11.65555
O         51.38601      115.72131       12.31991
C         49.97861      117.46026       10.45525
C         48.96125      118.43413        9.91563
C         49.00453      119.78936       10.28040
C         47.97701      117.99748        9.01213
C         48.07630      120.69171        9.75195
C         47.05373      118.90182        8.48134
C         47.09935      120.25058        8.84705
O         46.20585      121.11130        8.31938
H         49.48895      117.40120       13.16645
H         48.55836      115.85405       10.72509
H         50.48796      117.00988        9.57671
H         50.75038      117.99328       11.05475
H         49.75747      120.14860       10.96979
H         47.93264      116.95980        8.70645
H         48.12185      121.73419       10.04118
H         46.30659      118.55373        7.77892
H         46.20869      122.05397        8.53722
N         50.40710      114.09759       11.09100
C         51.50587      113.12690       11.10787
C         51.62423      112.30451       12.38219
O         51.70905      111.08863       12.26904
C         52.87961      113.74772       10.74407
C         52.90830      114.60518        9.46357
C         52.51607      113.86208        8.21550
O         53.32258      113.72275        7.31017
O         51.26249      113.39543        8.06011
H         49.61510      113.87234       10.47194
H         51.29195      112.38354       10.30785
H         53.61950      112.92403       10.63414
H         53.24045      114.38202       11.58018
H         53.94720      114.98456        9.34548
H         52.24908      115.48704        9.57471
N         51.71612      112.87620       13.61641
C         52.06799      112.11836       14.81573
C         51.07672      111.01683       15.18039
O         51.38863      110.24961       16.08198
C         52.25978      113.05198       16.04022
C         53.22551      114.24365       15.85075
C         54.60778      113.84555       15.41885
O         54.79317      113.34305       14.32226
O         55.66036      114.09840       16.21736
H         51.61365      113.88826       13.69401
H         53.03726      111.61636       14.60745
H         52.63367      112.44102       16.89165
H         51.27074      113.46907       16.32883
H         53.28957      114.77688       16.82394
H         52.82726      114.97244       15.11698
N         49.88059      110.85455       14.54641
C         48.98402      109.77032       14.88711
H         48.07305      109.81565       14.25398
H         49.48782      108.79499       14.71133
H         48.68430      109.84304       15.95405
H         49.58461      111.50315       13.80460
Ca        59.07135      114.91693       17.52778
O         57.89989      112.51005       14.74875
H         57.06971      111.97148       14.74068
H         58.43058      112.16435       13.98840
O         59.22103      115.17458       14.33556
H         58.66122      114.98536       13.54085
H         59.98782      115.69152       13.98205

Ca 1.0



