%chk=apoCaM-CA-Ng.loop3.water4.frame313.chk
%nprocshared=20
%mem=10GB
%nosave
#b3lyp/svp scf=(tight,noincore,xqc) Test 
#IOP(5/87=12) Density=Current Pop=(MK,readradii) iop(6/33=2) iop(6/42=6)

apoCaM-CA-Ng.loop3.water4.frame313 

   0  1 
C         51.49337       55.66939       42.58751
C         52.02184       54.35238       43.06627
O         52.19585       53.44919       42.26284
H         50.52781       55.87888       43.09659
H         52.21443       56.47758       42.82687
H         51.31602       55.64845       41.49175
N         52.27748       54.17077       44.39090
C         52.69139       52.90836       44.99345
C         51.60102       51.85144       44.81725
O         51.91226       50.68406       44.63166
C         54.06983       52.42920       44.46429
C         55.18477       53.42631       44.65122
O         54.97251       54.61683       45.24546
O         56.30577       53.14919       44.25529
H         52.12791       54.96889       45.02929
H         52.78899       53.08242       46.08924
H         53.99493       52.19458       43.38235
H         54.35949       51.49548       44.99319
N         50.28150       52.20533       44.88476
C         49.18507       51.24061       44.75969
C         49.13861       50.55358       43.40381
O         48.47586       49.52923       43.29136
C         47.82450       51.93098       44.98441
C         47.66046       52.43516       46.42326
C         46.29454       53.11083       46.60702
C         45.97682       53.42705       48.07741
N         46.90279       54.39509       48.66610
H         50.05092       53.19705       45.04121
H         49.33263       50.45505       45.53257
H         47.00814       51.19957       44.79232
H         47.71374       52.77074       44.26017
H         48.46704       53.15216       46.67994
H         47.73121       51.55717       47.10101
H         45.50370       52.41606       46.24943
H         46.24505       54.03724       45.99247
H         45.99499       52.48422       48.66815
H         44.94551       53.84066       48.12691
H         46.60612       54.58358       49.65100
H         47.87554       54.01568       48.68888
H         46.87709       55.29126       48.12820
N         49.75451       51.07976       42.31627
C         49.72460       50.45856       40.99936
C         50.46541       49.12396       41.03832
O         51.48544       49.03301       41.70706
C         50.34013       51.44268       39.98377
C         50.25153       50.95847       38.56151
O         50.84884       49.95797       38.22114
O         49.52094       51.61975       37.64419
H         50.24179       51.97961       42.42056
H         48.66933       50.30522       40.68190
H         51.38600       51.64937       40.27830
H         49.78527       52.40371       40.04449
N         50.00788       48.04768       40.33297
C         50.69749       46.76234       40.27349
C         52.07190       46.90303       39.65141
O         53.05755       46.55878       40.28858
H         49.13695       48.14591       39.79069
H         50.10466       46.06238       39.64540
H         50.77211       46.32953       41.29496
N         52.20610       47.44898       38.40821
C         53.49364       47.71262       37.75258
C         54.37987       48.70348       38.52774
O         55.51321       48.92136       38.12650
C         53.25972       48.33754       36.35543
C         52.32371       47.54760       35.47717
N         52.64098       46.30594       35.05311
O         51.26198       48.04570       35.13659
H         51.33652       47.68253       37.90966
H         54.02781       46.74260       37.65066
H         54.22916       48.45488       35.82857
H         52.82398       49.35297       36.50026
H         53.53450       45.87066       35.31941
H         51.99036       45.78622       34.44508
N         53.91263       49.36959       39.61772
C         54.62876       50.38966       40.36067
C         54.75493       51.66230       39.56154
O         55.80666       52.28631       39.58167
H         52.96158       49.19597       39.93123
H         55.59828       50.01614       40.75495
H         53.99741       50.65551       41.23765
N         53.68769       52.10922       38.84313
C         53.64269       53.34252       38.07992
C         53.50175       52.96424       36.63033
O         52.52945       52.31015       36.26761
C         52.43228       54.19334       38.51944
C         52.26791       55.53794       37.82894
C         53.23799       56.10517       36.97519
C         51.07910       56.25086       38.05579
C         53.01593       57.33852       36.36096
C         50.85722       57.48527       37.43722
C         51.82654       58.03195       36.58548
O         51.62869       59.22024       35.98092
H         52.86178       51.50610       38.79055
H         54.57587       53.92169       38.25003
H         52.47908       54.36903       39.61402
H         51.51697       53.59507       38.31505
H         54.17606       55.62070       36.77602
H         50.31524       55.84199       38.70592
H         53.77380       57.75490       35.70846
H         49.93084       58.01399       37.61936
H         50.81928       59.73432       36.10928
N         54.47895       53.29017       35.75268
C         54.52461       52.74415       34.41858
C         55.24454       51.43364       34.54659
O         54.64474       50.40806       34.27228
C         55.14389       53.77589       33.43158
C         54.22401       55.01922       33.26517
C         55.48119       53.17877       32.05813
C         52.82060       54.72603       32.70470
H         55.32558       53.75979       36.11134
H         53.51438       52.48880       34.05976
H         56.11410       54.12027       33.85334
H         54.72189       55.74348       32.58533
H         54.09883       55.51664       34.24745
H         55.96235       53.94884       31.41737
H         56.19452       52.34113       32.15820
H         54.58313       52.81073       31.54484
H         52.25833       55.67560       32.59343
H         52.86451       54.24111       31.70810
H         52.23546       54.08756       33.39433
N         56.51322       51.37491       35.02585
C         57.21994       50.11143       35.15242
C         57.31003       49.47404       33.78191
O         56.92152       48.32432       33.62859
C         58.60911       50.33509       35.76845
O         58.46361       50.90347       37.04346
H         56.98913       52.25114       35.28808
H         56.66714       49.43466       35.84153
H         59.20352       51.01111       35.11390
H         59.12849       49.35625       35.86759
H         59.36146       51.22832       37.31344
N         57.75667       50.21110       32.72340
C         57.91116       49.71988       31.36010
C         56.61368       49.29059       30.64281
O         56.74315       48.79505       29.53237
C         58.96693       48.60281       31.36041
H         58.04978       51.18401       32.90168
H         58.34002       50.54537       30.75010
H         59.21507       48.29946       30.32289
H         59.89965       48.97928       31.83719
H         58.62552       47.70861       31.91983
N         55.35208       49.44025       31.16664
C         54.13862       48.92382       30.50800
C         53.05079       49.97634       30.26192
O         53.18261       51.10498       30.70209
C         53.56505       47.80371       31.38084
H         55.24614       49.88233       32.08193
H         54.39726       48.49102       29.51911
H         53.28628       48.19509       32.38097
H         52.66698       47.34835       30.91502
H         54.32755       47.00921       31.51988
N         51.93358       49.64685       29.53070
C         50.78353       50.52412       29.26126
C         51.13907       51.80700       28.51385
O         50.27199       52.66296       28.39006
C         49.98956       50.83550       30.54874
C         49.43761       49.56362       31.21800
C         48.76766       49.92378       32.50947
O         47.80848       50.67870       32.52784
O         49.31361       49.48101       33.65715
H         51.88008       48.69597       29.13743
H         50.06570       49.98181       28.60626
H         49.11617       51.48120       30.30003
H         50.62849       51.40299       31.24942
H         50.27999       48.87619       31.44428
H         48.72300       49.04036       30.54522
N         52.35724       52.00435       27.93718
C         52.66854       53.22405       27.22272
H         53.68842       53.16024       26.78934
H         51.94108       53.37998       26.39677
H         52.62737       54.08958       27.91802
H         53.07864       51.27209       27.97190
Ca        49.35002       50.64161       35.60411
O         49.69910       52.89103       33.63361
H         49.93703       53.54955       32.93518
H         48.70995       52.87359       33.62677
O         46.72865       51.53420       35.77658
H         46.86929       51.44060       34.80161
H         45.85618       51.99045       35.85735
O         48.26566       48.24965       36.78456
H         48.24367       48.83824       37.58050
H         48.86193       47.50300       37.04210
O         51.70414       50.65297       33.64653
H         52.31050       49.87577       33.61204
H         52.04450       51.25992       32.94793

Ca 1.0



