%chk=apoCaM-CA-Ng.loop3.water5.frame1047.chk
%nprocshared=20
%mem=10GB
%nosave
#b3lyp/svp scf=(tight,noincore,xqc) Test 
#IOP(5/87=12) Density=Current Pop=(MK,readradii) iop(6/33=2) iop(6/42=6)

apoCaM-CA-Ng.loop3.water5.frame1047 

   0  1 
C         52.63602       73.10180       47.48126
C         53.99435       72.58762       47.84462
O         54.13652       71.98011       48.89650
H         51.89618       72.84663       48.27017
H         52.67674       74.20608       47.37420
H         52.31081       72.64922       46.52199
N         55.05055       72.81057       47.01200
C         56.40788       72.36434       47.31085
C         57.36380       73.52417       47.54145
O         58.45240       73.26108       48.02437
C         56.91442       71.38864       46.22659
C         57.03302       71.96910       44.83793
O         56.78362       73.26884       44.58682
O         57.36768       71.24269       43.91743
H         54.87305       73.32742       46.13875
H         56.40301       71.79857       48.26882
H         56.20880       70.53072       46.18471
H         57.91059       70.99467       46.52087
N         57.03247       74.82599       47.28504
C         57.90936       75.93804       47.64554
C         59.25240       75.85335       46.93217
O         59.30740       75.81746       45.71139
C         57.24361       77.30789       47.43207
C         55.97157       77.44116       48.29735
C         55.43692       78.87362       48.38907
C         55.03457       79.47036       47.03609
N         54.48445       80.81322       47.21678
H         56.11810       75.04002       46.86794
H         58.08672       75.86798       48.73902
H         57.01436       77.47326       46.35764
H         57.97178       78.08070       47.76529
H         56.21018       77.13411       49.33983
H         55.17239       76.76924       47.91946
H         56.20952       79.51886       48.86150
H         54.54614       78.85736       49.05504
H         54.27239       78.82087       46.55187
H         55.92355       79.53215       46.37185
H         54.23597       81.21190       46.28330
H         53.62295       80.77043       47.80871
H         55.19272       81.43356       47.67325
N         60.38080       75.77015       47.69061
C         61.73764       75.52898       47.20155
C         61.79003       74.29709       46.30521
O         62.31744       74.38920       45.20571
C         62.72446       75.36745       48.39922
C         62.35650       74.21396       49.30871
O         61.16572       74.22590       49.94103
O         63.09379       73.24753       49.41421
H         60.24751       75.86455       48.70310
H         62.07595       76.40655       46.60599
H         62.73940       76.30231       49.00036
H         63.74841       75.21018       47.99338
N         61.23293       73.11877       46.70653
C         61.22141       71.89115       45.92761
C         60.52948       72.02502       44.58200
O         60.12313       73.12050       44.22190
H         60.78351       73.07643       47.62738
H         60.68215       71.12732       46.52391
H         62.26538       71.54812       45.76643
N         60.35527       70.96077       43.74322
C         60.68263       69.57440       44.05934
C         59.41741       68.73118       43.89369
O         58.88729       68.70158       42.79226
C         61.79485       69.07322       43.12126
C         62.17825       67.64158       43.41531
N         62.68676       67.28971       44.62029
O         62.02937       66.79052       42.55145
H         59.93155       71.14574       42.81981
H         61.07678       69.49512       45.08470
H         62.69589       69.71265       43.24276
H         61.45254       69.16041       42.06625
H         62.83042       67.99053       45.36160
H         62.94132       66.30987       44.81423
N         58.84541       68.02210       44.90977
C         59.38025       67.99213       46.25895
C         58.54055       67.19849       47.23526
O         57.51273       66.63945       46.87081
H         57.98307       67.49803       44.69328
H         59.42724       69.03092       46.64085
H         60.40204       67.55793       46.24425
N         58.92332       67.15640       48.54004
C         58.14905       66.49124       49.58845
C         58.64185       66.90706       50.97619
O         59.67275       67.56404       51.08028
C         58.22610       64.95289       49.39034
C         57.30548       64.16402       50.28774
C         57.82314       63.25152       51.22284
C         55.91307       64.32179       50.18186
C         56.96101       62.51505       52.04176
C         55.05385       63.58461       51.00099
C         55.57561       62.67817       51.93476
O         54.75781       61.95971       52.73028
H         59.77788       67.68078       48.78246
H         57.10165       66.85640       49.50174
H         59.28391       64.64104       49.53875
H         57.95251       64.68341       48.34958
H         58.89212       63.10908       51.32005
H         55.49302       65.01300       49.46213
H         57.37033       61.81562       52.75983
H         53.98344       63.71724       50.90678
H         53.79435       62.04192       52.68573
N         57.92793       66.61174       52.10017
C         58.36455       67.06081       53.42271
C         59.71236       66.46227       53.79536
O         60.15729       65.52036       53.15300
C         57.29842       66.80646       54.53296
C         56.03116       67.65555       54.25524
C         56.97052       65.30622       54.69572
C         55.01267       67.63041       55.39626
H         57.03290       66.11534       51.99958
H         58.52166       68.15943       53.35746
H         57.72835       67.16691       55.49361
H         55.53304       67.32759       53.31818
H         56.34106       68.71593       54.12744
H         56.48074       64.89471       53.79039
H         57.89257       64.72282       54.89675
H         56.29067       65.13905       55.55509
H         54.59289       66.61562       55.54502
H         55.48395       67.97953       56.33977
H         54.17091       68.31216       55.15102
N         60.43935       67.01590       54.80923
C         61.76003       66.53696       55.20095
C         62.82502       67.59951       54.97111
O         62.50754       68.72525       54.61396
C         61.73116       66.12363       56.68165
O         61.43018       67.23596       57.48489
H         60.05030       67.83039       55.30897
H         62.04349       65.64931       54.59458
H         62.72117       65.69774       56.96421
H         60.95935       65.33913       56.83545
H         61.83842       67.07029       58.37396
N         64.13449       67.27861       55.17805
C         65.26433       68.19474       55.07991
C         65.16932       69.29022       56.12665
O         65.37765       70.45587       55.81754
C         65.44589       68.72609       53.64927
H         64.35735       66.31039       55.45439
H         66.17685       67.61025       55.33215
H         66.36118       69.35283       53.58718
H         65.55787       67.87630       52.94342
H         64.57975       69.34236       53.33068
N         64.84216       68.95927       57.41019
C         64.76729       69.89110       58.52789
C         63.98413       71.14451       58.17596
O         64.47878       72.24076       58.40997
C         66.18594       70.22534       59.01322
H         64.60588       67.97634       57.61549
H         64.24869       69.37137       59.36427
H         66.14393       70.87055       59.91708
H         66.72726       69.29249       59.27676
H         66.75625       70.75439       58.21951
N         62.76664       71.06675       57.56872
C         62.08006       72.26533       57.10868
C         61.17040       72.79308       58.19070
O         61.39171       73.90285       58.65653
C         61.35343       72.01105       55.77652
C         60.72999       73.30872       55.24466
C         60.19423       73.12122       53.86501
O         60.65213       73.78307       52.94924
O         59.21219       72.23183       53.62723
H         62.37941       70.13944       57.33233
H         62.83988       73.04711       56.87457
H         60.57287       71.22565       55.88473
H         62.10840       71.64982       55.04222
H         61.50916       74.10254       55.21314
H         59.90897       73.64735       55.91198
N         60.11681       72.05996       58.63709
C         59.22536       72.55825       59.66052
H         58.42923       71.81286       59.86587
H         59.79256       72.74712       60.59678
H         58.75034       73.50349       59.31973
H         59.93626       71.12768       58.23555
Ca        59.98407       72.44625       50.65596
O         58.71097       75.70177       51.37843
H         59.39989       75.87390       52.06683
H         58.53835       76.59077       50.97955
O         57.37459       70.60029       51.63461
H         56.93171       69.82197       51.21284
H         57.81325       70.23034       52.44019
O         56.69528       73.49501       50.91081
H         55.98521       72.83899       50.69959
H         56.21689       74.35748       50.99557
O         59.28513       70.38919       48.81891
H         60.25666       70.19839       48.80160
H         58.94634       69.87306       49.59129
O         61.86107       70.42399       51.33938
H         62.45500       69.74650       50.93181
H         62.29243       71.28889       51.12431

Ca 1.0



