%chk=apoCaM-CA-Ng.loop2.water4.frame55.chk
%nprocshared=20
%mem=10GB
%nosave
#b3lyp/svp scf=(tight,noincore,xqc) Test 
#IOP(5/87=12) Density=Current Pop=(MK,readradii) iop(6/33=2) iop(6/42=6)

apoCaM-CA-Ng.loop2.water4.frame55 

   -2  1 
C         56.24969       76.31805       84.74119
C         56.95791       77.36666       83.92763
O         57.34882       77.07810       82.80656
H         55.33566       75.98753       84.20547
H         56.90847       75.43974       84.89260
H         55.94803       76.70901       85.73666
N         57.14074       78.61962       84.43043
C         57.75741       79.71824       83.69150
C         58.99990       80.20856       84.41712
O         60.04910       80.29680       83.79652
C         56.72022       80.84216       83.51673
C         57.22742       81.95482       82.63606
O         58.29304       82.69052       83.00633
O         56.66542       82.20258       81.58093
H         56.78601       78.81428       85.37860
H         58.05027       79.38876       82.66844
H         56.41997       81.25604       84.50308
H         55.81594       80.40225       83.03937
N         58.95609       80.51479       85.74671
C         60.09656       80.95390       86.54331
C         61.28448       80.00667       86.41827
O         62.41624       80.46464       86.33096
C         60.45662       82.40703       86.20893
H         58.06872       80.38785       86.25394
H         59.77567       80.93698       87.60867
H         59.56768       83.05550       86.36288
H         61.26730       82.76876       86.87698
H         60.78790       82.50091       85.15358
N         61.08254       78.65783       86.35898
C         62.14239       77.66120       86.23691
C         63.06072       77.99618       85.06639
O         64.26965       78.07325       85.24440
C         62.86109       77.53905       87.59771
C         63.83257       76.39399       87.72035
O         64.99821       76.63939       87.98815
O         63.45145       75.09722       87.62977
H         60.11367       78.31026       86.36913
H         61.66051       76.68328       86.02998
H         62.10125       77.39502       88.39092
H         63.38563       78.49652       87.81423
N         62.53410       78.26867       83.83601
C         63.36130       78.63543       82.69942
C         64.15797       77.44048       82.27566
O         65.37447       77.44964       82.39924
H         61.51266       78.24608       83.70865
H         64.01491       79.49208       82.97931
H         62.72840       78.95490       81.84300
N         63.50532       76.35233       81.78107
C         64.16293       75.08533       81.49607
C         64.18761       74.75616       80.02110
O         64.82167       73.76821       79.67780
C         63.42590       73.97301       82.26001
C         63.36920       74.28239       83.72687
N         64.49989       74.34252       84.46470
O         62.28790       74.49842       84.24816
H         62.48326       76.41106       81.64458
H         65.22449       75.12652       81.82458
H         63.91386       72.98658       82.10987
H         62.38571       73.90768       81.86524
H         65.41913       74.16453       84.03723
H         64.45918       74.56372       85.46660
N         63.56821       75.53266       79.08551
C         63.64725       75.26712       77.66077
C         62.97275       73.96896       77.25088
O         63.36692       72.90558       77.70524
H         63.05723       76.37968       79.37362
H         64.71555       75.24078       77.35621
H         63.17448       76.11524       77.11910
N         61.98544       73.98433       76.31347
C         61.41640       72.75977       75.74541
C         60.52940       71.96991       76.71459
O         60.11336       70.88018       76.33882
C         60.67826       73.05717       74.40799
C         59.45450       73.97776       74.54038
O         61.57728       73.56747       73.45179
H         61.71994       74.89662       75.91886
H         62.26773       72.09689       75.47070
H         60.30881       72.08945       74.00463
H         61.81682       74.49603       73.70587
H         58.71118       73.53314       75.22547
H         59.72962       74.98473       74.91490
H         58.97700       74.10231       73.54569
N         60.19041       72.42881       77.95422
C         59.35453       71.68498       78.90584
C         60.12227       71.41795       80.19838
O         61.26654       71.84593       80.30948
C         58.01185       72.44988       79.16906
C         58.24512       73.91007       79.64595
C         57.12677       72.39510       77.91184
C         56.96539       74.63427       80.06997
H         60.53755       73.35309       78.24950
H         59.09201       70.68009       78.50590
H         57.44966       71.91088       79.95937
H         58.72117       74.50781       78.83964
H         58.92369       73.90063       80.52524
H         56.96164       71.33898       77.60802
H         56.12505       72.83020       78.09971
H         57.59891       72.93805       77.07343
H         57.22286       75.65730       80.41581
H         56.25549       74.74214       79.22542
H         56.47232       74.09071       80.90294
N         59.54166       70.73907       81.23653
C         60.17785       70.57839       82.54165
C         60.05754       69.14084       83.09167
O         60.35104       68.93879       84.25966
C         59.56470       71.65365       83.48065
C         60.39411       71.99262       84.70452
O         60.03873       73.04315       85.47844
O         61.44481       71.41463       84.93505
H         58.56118       70.42919       81.14479
H         61.25867       70.83012       82.46642
H         58.51788       71.39431       83.74007
H         59.53762       72.60732       82.90721
N         59.68942       68.08018       82.30010
C         59.58975       66.70192       82.80191
C         58.36302       66.55482       83.69646
O         57.28165       66.84046       83.20845
C         59.41825       65.69917       81.63189
C         59.35849       64.26779       82.13379
C         60.51170       63.63415       82.63133
C         58.14215       63.56071       82.12561
C         60.44709       62.32031       83.11007
C         58.08009       62.25205       82.61625
C         59.23163       61.63154       83.10595
H         59.52442       68.24269       81.29714
H         60.53782       66.44564       83.31867
H         60.24766       65.78973       80.89811
H         58.47803       65.95218       81.09365
H         61.46031       64.15556       82.64625
H         57.23707       64.02773       81.75894
H         61.33849       61.83598       83.48817
H         57.13770       61.71918       82.61979
H         59.18145       60.61760       83.48307
N         58.40789       66.05294       84.96984
C         57.23037       65.85750       85.80938
C         56.39571       67.11141       85.99148
O         55.17620       67.02395       85.95734
C         57.82151       65.41888       87.15493
C         59.03597       64.63997       86.71141
C         59.59961       65.55242       85.62483
H         56.61454       65.03357       85.38085
H         58.20213       66.30355       87.71490
H         57.10953       64.86514       87.80513
H         59.75397       64.37046       87.51416
H         58.67284       63.70026       86.23049
H         60.16649       66.41141       86.04523
H         60.24451       64.93179       84.97339
N         56.99865       68.31754       86.19529
C         56.26686       69.55443       86.47343
C         55.33785       69.99381       85.34087
O         54.56051       70.91118       85.56623
C         57.25292       70.70741       86.77120
C         58.13667       70.44506       88.00144
C         59.11887       71.56383       88.19403
O         58.68418       72.82184       88.39776
O         60.31821       71.33730       88.16466
H         58.02858       68.33837       86.17910
H         55.63880       69.37758       87.37478
H         56.68451       71.64726       86.94878
H         57.89830       70.85402       85.88088
H         58.70623       69.50025       87.88534
H         57.49911       70.35547       88.90583
N         55.36362       69.41697       84.10641
C         54.48696       69.79778       83.01699
H         53.77105       70.59557       83.30398
H         55.09753       70.15986       82.16324
H         53.90645       68.90970       82.68837
H         56.04302       68.68207       83.90580
Ca        61.58467       74.01466       86.86412
O         62.37230       72.92864       89.84897
H         62.33155       72.15178       90.46137
H         62.94378       73.58712       90.31804
O         60.46596       75.36872       89.37987
H         60.13269       76.17584       88.91372
H         60.96926       75.71989       90.15671
O         63.70468       71.79919       87.13930
H         64.23564       71.51977       86.35178
H         64.22661       71.48204       87.91854
O         59.14057       75.96636       86.32716
H         59.26969       75.56150       85.43298
H         58.61431       75.30111       86.83634

Ca 1.0



