%chk=apoCaM-CA-Ng.loop3.water3.frame677.chk
%nprocshared=20
%mem=10GB
%nosave
#b3lyp/svp scf=(tight,noincore,xqc) Test 
#IOP(5/87=12) Density=Current Pop=(MK,readradii) iop(6/33=2) iop(6/42=6)

apoCaM-CA-Ng.loop3.water3.frame677 

   0  1 
C        -23.46486       72.39123       96.51325
C        -24.17976       73.33405       97.43757
O        -25.21640       73.86111       97.06105
H        -22.55773       71.96398       96.99167
H        -24.14354       71.54950       96.25612
H        -23.16630       72.91829       95.58516
N        -23.70141       73.55868       98.69167
C        -24.42411       74.34115       99.68473
C        -24.51552       75.81509       99.29493
O        -23.48432       76.46014       99.16546
C        -23.75595       74.15586      101.05912
C        -24.60795       74.61624      102.19483
O        -24.15923       74.45172      103.45211
O        -25.71859       75.08349      101.99953
H        -22.83409       73.07625       98.97515
H        -25.43269       73.89784       99.76145
H        -22.76903       74.66519      101.08178
H        -23.59062       73.07298      101.23515
N        -25.72789       76.40101       99.05887
C        -25.86887       77.77383       98.56331
C        -25.69281       78.83686       99.64232
O        -25.58717       80.00084       99.28027
C        -27.23468       77.96106       97.87147
C        -27.37212       77.02799       96.65825
C        -28.75703       77.13959       96.02021
C        -28.86570       76.20092       94.81187
N        -30.20471       76.25155       94.22913
H        -26.57057       75.81300       99.13556
H        -25.08488       77.94254       97.79073
H        -27.33969       79.01034       97.51523
H        -28.04655       77.75977       98.60294
H        -27.22477       75.97210       96.96738
H        -26.58949       77.28813       95.91144
H        -28.94142       78.18705       95.69551
H        -29.52383       76.85612       96.77457
H        -28.64800       75.15628       95.12951
H        -28.11556       76.49742       94.04471
H        -30.42643       77.22498       93.91813
H        -30.24094       75.61243       93.40253
H        -30.91103       75.93444       94.93262
N        -25.65986       78.53164      100.97135
C        -25.39786       79.51929      102.01861
C        -24.09635       79.14040      102.71391
O        -23.18472       79.95467      102.75045
C        -26.60889       79.71238      102.97596
C        -26.92946       78.54202      103.85676
O        -26.83203       78.65565      105.06849
O        -27.25112       77.34867      103.33144
H        -25.79927       77.55369      101.24995
H        -25.25022       80.52667      101.56899
H        -27.50928       79.97984      102.38393
H        -26.37324       80.57706      103.63773
N        -23.91383       77.87899      103.20080
C        -22.66648       77.37806      103.75287
C        -22.83309       76.78734      105.13856
O        -21.86054       76.24528      105.64377
H        -24.67817       77.20107      103.11740
H        -21.88072       78.16272      103.78143
H        -22.30788       76.56733      103.08158
N        -24.01474       76.85849      105.82221
C        -24.20826       76.32943      107.16681
C        -25.41002       75.34498      107.23243
O        -25.44458       74.43934      106.17200
C        -24.49633       77.51708      108.10596
C        -23.37465       78.52660      108.10468
N        -22.14727       78.19785      108.56829
O        -23.58032       79.65631      107.68559
H        -24.80295       77.36022      105.40514
H        -23.29420       75.79458      107.50522
H        -24.66181       77.16819      109.14648
H        -25.43001       78.01558      107.75691
H        -21.95935       77.25511      108.93799
H        -21.38560       78.89244      108.56846
N        -25.40071       74.61757      108.50786
C        -26.58655       73.77840      108.75161
C        -26.69914       72.58688      107.81415
O        -25.73637       71.84781      107.66350
H        -24.53514       74.03285      108.57930
H        -27.50763       74.40080      108.73023
H        -26.49157       73.37276      109.78029
N        -27.87745       72.32216      107.18193
C        -28.08515       71.17628      106.29552
C        -27.63851       71.50520      104.87895
O        -27.11157       72.58382      104.65207
C        -29.57707       70.75698      106.33505
C        -29.98381       70.30502      107.71829
C        -29.38785       69.17021      108.30023
C        -30.96431       71.00623      108.43692
C        -29.75886       68.75439      109.58167
C        -31.33354       70.58846      109.71943
C        -30.73214       69.46512      110.29736
O        -31.09656       69.07906      111.53674
H        -28.68521       72.93067      107.38751
H        -27.48620       70.30589      106.64250
H        -29.78159       69.90745      105.65194
H        -30.19887       71.61353      105.99323
H        -28.63664       68.60400      107.76365
H        -31.43968       71.87891      108.00764
H        -29.28897       67.88069      110.01654
H        -32.08748       71.14064      110.26539
H        -30.70073       68.31142      111.97383
N        -27.82197       70.59605      103.87521
C        -27.43816       70.76083      102.47424
C        -28.13687       71.95658      101.82864
O        -27.93791       73.08047      102.26350
C        -25.89250       70.83689      102.28901
C        -25.47873       70.78982      100.78686
C        -25.16972       69.72875      103.07733
C        -25.84459       69.50013      100.03579
H        -28.26249       69.69484      104.11056
H        -27.77182       69.83555      101.96134
H        -25.53164       71.80341      102.70286
H        -24.37667       70.90999      100.71796
H        -25.94132       71.64120      100.24775
H        -25.36183       69.83563      104.16531
H        -25.50840       68.71946      102.76682
H        -24.07161       69.80762      102.92743
H        -25.48044       69.56982       98.98941
H        -25.36616       68.61320      100.49881
H        -26.94036       69.34393       99.99123
N        -28.91923       71.78725      100.72614
C        -29.47648       72.91067       99.97581
C        -30.83169       72.59595       99.36774
O        -31.28659       73.37960       98.54298
C        -28.47976       73.30183       98.87817
O        -28.25588       72.22562       98.00962
H        -28.97237       70.84623      100.30850
H        -29.60170       73.80411      100.62331
H        -27.53931       73.59243       99.38177
H        -28.85388       74.18041       98.30619
H        -27.41809       72.43470       97.52200
N        -31.55713       71.50148       99.73472
C        -32.81298       71.14061       99.09066
C        -33.99105       71.44932       99.99955
O        -33.76929       71.68326      101.18029
C        -32.75119       69.64863       98.74820
H        -31.22953       70.90744      100.51155
H        -32.93258       71.72351       98.15810
H        -32.62397       69.05095       99.67763
H        -33.66489       69.29796       98.25130
H        -31.88985       69.44500       98.07806
N        -35.28610       71.50240       99.56074
C        -35.72022       71.44610       98.16395
C        -37.19489       71.06188       98.09292
O        -37.99375       71.73529       98.72961
C        -35.54653       72.82229       97.50260
H        -36.00192       71.72844      100.26963
H        -35.10771       70.73639       97.59101
H        -35.87380       72.77226       96.44070
H        -36.15272       73.59273       98.02489
H        -34.49015       73.15385       97.51347
N        -37.67977       70.04133       97.32353
C        -36.87542       69.19786       96.44385
C        -35.99687       68.23735       97.22188
O        -34.98041       67.81518       96.68703
C        -37.76665       68.38052       95.48390
C        -38.60075       69.28422       94.55985
C        -39.43391       68.46484       93.61869
O        -40.36302       67.61716       94.10080
O        -39.28346       68.57279       92.41225
H        -38.70229       69.90284       97.32891
H        -36.23817       69.85149       95.80613
H        -38.43733       67.71668       96.07420
H        -37.11597       67.74227       94.84438
H        -37.91728       69.94136       93.97800
H        -39.28439       69.92934       95.14906
N        -36.34944       67.79686       98.46210
C        -35.53385       66.86062       99.20541
H        -34.53891       67.30452       99.41437
H        -36.02226       66.61778      100.17270
H        -35.40476       65.92132       98.62637
H        -37.22947       68.11754       98.89157
Ca       -26.41846       75.66219      104.54343
O        -28.91490       76.13908      106.33728
H        -28.58803       76.98699      106.72994
H        -29.26068       75.62353      107.10848
O        -28.66231       76.20039      101.00122
H        -29.60075       76.25071      101.31245
H        -28.38339       77.14462      100.90488
O        -29.97861       74.27160      104.11118
H        -30.45469       73.98178      103.29277
H        -30.69876       74.46028      104.76376

Ca 1.0



