%chk=apoCaM-CA-Ng.loop3.water6.frame1056.chk
%nprocshared=20
%mem=10GB
%nosave
#b3lyp/svp scf=(tight,noincore,xqc) Test 
#IOP(5/87=12) Density=Current Pop=(MK,readradii) iop(6/33=2) iop(6/42=6)

apoCaM-CA-Ng.loop3.water6.frame1056 

   0  1 
C         28.26351       80.08431       43.44070
C         29.42751       80.81216       42.83675
O         29.58975       81.99298       43.11041
H         27.31786       80.57177       43.12383
H         28.23812       79.02198       43.11849
H         28.33923       80.11663       44.54751
N         30.28569       80.16784       41.99680
C         31.43064       80.82394       41.37873
C         31.00334       82.03168       40.56405
O         31.54061       83.10070       40.81946
C         32.30989       79.82268       40.58906
C         31.61513       79.03434       39.51184
O         31.52989       77.69407       39.62045
O         31.17434       79.58351       38.51678
H         30.12007       79.16964       41.79728
H         32.10040       81.19907       42.18759
H         32.71268       79.09465       41.32740
H         33.17909       80.35680       40.14627
N         30.01496       81.97488       39.62044
C         29.62714       83.16138       38.86256
C         30.77524       83.58801       37.98297
O         31.11867       82.86984       37.05319
C         28.36446       82.94048       38.01219
C         27.12923       82.74037       38.89795
C         25.85745       82.62296       38.05443
C         24.62101       82.53388       38.95692
N         23.39906       82.42912       38.16209
H         29.51163       81.08897       39.47038
H         29.39561       83.97281       39.58252
H         28.50363       82.07765       37.32344
H         28.19510       83.85509       37.39987
H         27.03068       83.62410       39.56697
H         27.24579       81.83058       39.52539
H         25.92294       81.72066       37.40773
H         25.76072       83.52182       37.40588
H         24.56497       83.44672       39.59219
H         24.70556       81.64705       39.62336
H         23.30466       83.26109       37.53501
H         23.41892       81.55439       37.58939
H         22.57597       82.39617       38.80590
N         31.46853       84.72086       38.28386
C         32.66509       85.13110       37.56983
C         33.87086       84.81355       38.42554
O         34.73254       85.66157       38.61833
C         32.55330       86.61630       37.14722
C         32.23498       87.54418       38.29808
O         33.07076       87.66133       39.34782
O         31.20223       88.19449       38.28313
H         31.19813       85.25727       39.12106
H         32.80071       84.52103       36.65105
H         31.73588       86.70033       36.39887
H         33.49563       86.94523       36.65893
N         33.99190       83.57323       38.98551
C         35.12932       83.21842       39.80331
C         36.31702       82.89614       38.93673
O         36.14959       82.73498       37.73514
H         33.24568       82.87450       38.86601
H         34.90457       82.32390       40.42362
H         35.33545       84.07604       40.46870
N         37.57699       82.80739       39.43508
C         37.94959       83.09742       40.81799
C         37.56841       81.94792       41.73924
O         38.00504       80.83643       41.47258
C         39.47267       83.33156       40.88455
C         39.86426       84.47379       39.97261
N         40.66635       84.26169       38.90282
O         39.42882       85.59547       40.18796
H         38.32820       82.61644       38.75241
H         37.48697       84.05446       41.13312
H         40.00083       82.40195       40.57766
H         39.78140       83.57761       41.92369
H         41.02846       83.32075       38.69040
H         40.90977       85.03818       38.27007
N         36.80613       82.09374       42.86387
C         36.23651       83.35939       43.31519
C         35.52008       83.24862       44.64444
O         35.51317       82.18716       45.25165
H         36.64923       81.24332       43.42565
H         35.50281       83.71581       42.57509
H         37.04446       84.11265       43.43479
N         34.87808       84.33901       45.16177
C         34.23369       84.29962       46.47673
C         33.36796       85.53373       46.73561
O         33.41643       86.48696       45.97162
C         35.35588       84.19797       47.54985
C         34.89036       83.92407       48.95378
C         35.16247       84.83364       49.98952
C         34.21106       82.73103       49.24541
C         34.75991       84.55065       51.29799
C         33.80794       82.45124       50.55269
C         34.08343       83.35977       51.58485
O         33.70585       83.09811       52.85193
H         34.85380       85.19794       44.59293
H         33.55742       83.41721       46.48961
H         35.95166       85.13796       47.51023
H         36.05371       83.37281       47.30524
H         35.69165       85.75701       49.78840
H         34.00140       82.01492       48.46078
H         34.97738       85.25610       52.09000
H         33.28739       81.52564       50.76171
H         33.24152       82.28318       53.09078
N         32.53930       85.57626       47.82348
C         31.76292       86.76623       48.18533
C         32.68818       87.94680       48.46553
O         33.89790       87.76373       48.51616
C         30.81507       86.50794       49.40689
C         29.66111       85.55381       49.00998
C         31.58081       86.00530       50.65169
C         28.60592       85.38234       50.10771
H         32.46461       84.73115       48.40033
H         31.13607       87.05037       47.31059
H         30.34200       87.47741       49.67460
H         30.05345       84.55501       48.72337
H         29.14132       85.98845       48.12787
H         31.98444       84.98547       50.49860
H         32.41738       86.68819       50.90426
H         30.91733       85.96326       51.53830
H         27.77081       84.75831       49.72555
H         29.02643       84.87099       50.99716
H         28.19644       86.37028       50.40971
N         32.17767       89.20425       48.62678
C         33.01873       90.38015       48.83885
C         32.87204       91.37515       47.69610
O         32.01285       91.20096       46.84253
C         32.70118       91.01232       50.19931
O         31.35985       91.41646       50.24864
H         31.15621       89.33923       48.57122
H         34.08930       90.08140       48.85252
H         33.36116       91.88826       50.37904
H         32.89846       90.24533       50.98429
H         31.14778       91.55615       51.20827
N         33.75463       92.41430       47.59244
C         33.81838       93.35467       46.47452
C         32.64557       94.31935       46.40236
O         32.46743       94.94083       45.36349
C         34.06002       92.61746       45.14613
H         34.48268       92.50569       48.31700
H         34.71137       94.00119       46.62195
H         34.96766       91.98294       45.23134
H         33.20096       91.98020       44.85972
H         34.23146       93.34795       44.32669
N         31.86772       94.58117       47.49323
C         30.81139       95.58724       47.51450
C         29.74626       95.28070       46.47991
O         29.45580       96.12501       45.64185
C         31.39948       97.00409       47.34951
H         32.04249       94.07204       48.37196
H         30.32593       95.56006       48.51536
H         31.89170       97.13612       46.36353
H         30.59396       97.76565       47.43338
H         32.14741       97.20380       48.14518
N         29.11066       94.07478       46.49257
C         28.04683       93.73340       45.55336
C         26.72357       93.48684       46.26116
O         25.72357       93.34997       45.56862
C         28.43629       92.49511       44.72562
C         29.70256       92.72851       43.89135
C         30.03189       91.51286       43.07738
O         29.24300       91.09900       42.24227
O         31.20463       90.87798       43.26000
H         29.39424       93.37517       47.19612
H         27.86805       94.57818       44.85219
H         27.59984       92.24834       44.03441
H         28.59583       91.62968       45.40748
H         30.55765       92.95701       44.56242
H         29.55020       93.58827       43.20367
N         26.61711       93.41353       47.61938
C         25.34325       93.20581       48.27145
H         24.87324       92.26818       47.90529
H         25.48821       93.12625       49.36964
H         24.67238       94.06554       48.06127
H         27.44667       93.49240       48.22252
Ca        30.76885       88.67262       41.28409
O         28.27828       88.13464       43.03554
H         27.96716       88.34909       43.95039
H         27.77274       87.32119       42.78517
O         32.00801       90.94708       39.68847
H         32.65808       90.44373       39.13717
H         32.50216       91.15949       40.51959
O         28.30733       88.38751       39.52165
H         27.39406       88.42435       39.90181
H         28.35688       87.50518       39.07486
O         31.39613       87.00723       43.82787
H         30.76577       86.26461       44.00453
H         32.14277       86.58642       43.33145
O         29.77191       85.97694       41.22727
H         28.86408       85.58786       41.28516
H         30.35779       85.31529       41.67189
O         33.52349       89.01784       42.35134
H         34.38437       89.20453       41.90018
H         33.75601       88.91863       43.30852

Ca 1.0



