%chk=apoCaM-CA-Ng.loop3.water7.frame1152.chk
%nprocshared=20
%mem=10GB
%nosave
#b3lyp/svp scf=(tight,noincore,xqc) Test 
#IOP(5/87=12) Density=Current Pop=(MK,readradii) iop(6/33=2) iop(6/42=6)

apoCaM-CA-Ng.loop3.water7.frame1152 

   0  1 
C         55.61087       43.40869       76.31831
C         54.74886       42.90231       75.20510
O         55.26477       42.65387       74.12648
H         56.66854       43.49243       75.98565
H         55.25647       44.41433       76.62767
H         55.55602       42.71346       77.18024
N         53.40675       42.75037       75.38902
C         52.51175       42.32423       74.31932
C         51.57848       43.45499       73.92855
O         50.43699       43.19622       73.57308
C         51.78555       41.01022       74.69221
C         50.84971       41.09773       75.87485
O         50.64137       42.25686       76.52965
O         50.25649       40.09550       76.23945
H         53.00795       42.98986       76.30836
H         53.09942       42.10209       73.40219
H         52.55696       40.24301       74.91633
H         51.19800       40.65963       73.81554
N         52.03800       44.74480       73.91210
C         51.27693       45.89355       73.43554
C         51.01489       45.67559       71.95914
O         49.86378       45.61046       71.54730
C         49.98378       46.08062       74.27213
C         49.31049       47.44393       74.03768
C         47.89790       47.52924       74.64485
C         47.83016       47.21490       76.14796
N         46.46038       47.35686       76.64297
H         53.00337       44.93260       74.22009
H         51.91163       46.79927       73.56023
H         50.24129       46.01275       75.35085
H         49.26607       45.26681       74.03704
H         49.19713       47.63745       72.95044
H         49.96331       48.23954       74.45906
H         47.23636       46.81589       74.10614
H         47.51227       48.55712       74.46779
H         48.50019       47.90119       76.71001
H         48.16126       46.16866       76.32706
H         46.43153       47.09821       77.65558
H         46.14070       48.34679       76.53587
H         45.81756       46.72118       76.11591
N         52.06861       45.42679       71.12414
C         51.87979       44.89002       69.78301
C         52.33191       43.44086       69.76836
O         52.93083       42.97881       70.73166
C         52.47449       45.78848       68.67617
C         53.98971       45.99452       68.61268
O         54.69984       44.81746       68.37035
O         54.52865       46.58478       69.75662
H         53.02751       45.47955       71.50150
H         50.79163       44.84743       69.56201
H         52.00929       46.79322       68.76701
H         52.17059       45.37661       67.69047
N         51.95784       42.62374       68.74998
C         52.15876       41.18488       68.78456
C         51.37987       40.58303       69.94835
O         50.20343       40.90436       70.04590
H         51.43541       43.02080       67.95413
H         53.23757       40.95798       68.77645
H         51.72590       40.75949       67.85321
N         51.87293       39.68091       70.85281
C         53.18659       39.04616       70.83550
C         53.73645       38.93589       72.25906
O         53.05291       38.36004       73.09418
C         53.00687       37.63610       70.24094
C         54.30120       36.86557       70.17347
N         54.43960       35.69438       70.83747
O         55.23026       37.29887       69.50865
H         51.19715       39.31087       71.54160
H         53.88972       39.58272       70.18252
H         52.60054       37.72824       69.21001
H         52.26093       37.07543       70.84670
H         53.66643       35.31079       71.40071
H         55.32352       35.16709       70.78940
N         54.96447       39.39795       72.63572
C         55.88688       40.07104       71.74070
C         57.19550       40.36874       72.43726
O         57.85972       39.43363       72.86358
H         55.25374       39.24385       73.61565
H         55.40514       41.00360       71.38847
H         56.11255       39.42506       70.86703
N         57.61583       41.65437       72.61134
C         58.84381       42.00454       73.32687
C         58.89520       43.50879       73.63097
O         58.05183       44.25488       73.15015
C         60.08329       41.55377       72.50060
C         61.36522       41.55927       73.29540
C         62.42818       42.41360       72.95755
C         61.50700       40.68711       74.38841
C         63.60646       42.40394       73.71408
C         62.68377       40.67803       75.13976
C         63.73677       41.54112       74.80833
O         64.87399       41.54952       75.53261
H         56.99462       42.39838       72.27255
H         58.80280       41.47543       74.30418
H         60.15875       42.20238       71.60027
H         59.96053       40.51392       72.13431
H         62.34320       43.09326       72.11896
H         60.70506       40.01079       74.65711
H         64.41660       43.07373       73.45458
H         62.77419       40.00016       75.97929
H         64.99849       40.97247       76.30001
N         59.83939       44.02636       74.46870
C         59.89083       45.45188       74.81797
C         60.18880       46.29578       73.57389
O         60.53169       45.72332       72.54827
C         60.92925       45.65813       75.97810
C         62.38812       45.48272       75.47742
C         60.75064       46.98926       76.73168
C         63.42390       45.40571       76.59892
H         60.49858       43.37554       74.91777
H         58.88225       45.71513       75.20723
H         60.70091       44.86664       76.72763
H         62.65525       46.31805       74.79359
H         62.46923       44.54110       74.90528
H         61.35639       46.99347       77.66003
H         61.07967       47.85999       76.13644
H         59.69098       47.11457       77.04112
H         63.45516       46.34059       77.19313
H         63.19831       44.54693       77.26599
H         64.43112       45.25285       76.15632
N         60.11657       47.65912       73.59486
C         60.51661       48.48479       72.45812
C         59.51681       49.58741       72.15287
O         58.57615       49.79377       72.90507
C         61.88019       49.11861       72.78389
O         61.77622       49.92933       73.92359
H         59.83512       48.13577       74.45973
H         60.63755       47.86232       71.54486
H         62.23807       49.72614       71.92406
H         62.61266       48.30256       72.97264
H         62.68457       50.28934       74.09358
N         59.73082       50.38369       71.06475
C         59.02791       51.62528       70.77004
C         59.33308       52.64384       71.84913
O         58.42139       53.25154       72.39506
C         57.52391       51.41933       70.53319
H         60.50847       50.14202       70.43186
H         59.45608       52.03507       69.82816
H         57.04845       52.38505       70.25623
H         57.36924       50.71550       69.69636
H         57.01051       51.02963       71.43572
N         60.63398       52.86105       72.21778
C         61.05578       53.84019       73.21369
C         60.44031       53.60983       74.59095
O         60.57905       54.48288       75.43696
C         60.76414       55.25464       72.69548
H         61.37551       52.30755       71.76185
H         62.16095       53.78151       73.33245
H         59.67772       55.43344       72.57042
H         61.17017       56.01170       73.39994
H         61.26901       55.39934       71.71587
N         59.76879       52.46109       74.90516
C         59.10539       52.25152       76.18586
C         60.10365       52.38512       77.31932
O         59.90707       53.22729       78.18431
C         58.41249       50.86502       76.21097
C         57.46881       50.67715       77.41070
C         56.28956       51.61022       77.33549
O         55.52525       51.55814       76.38396
O         56.06678       52.50324       78.31774
H         59.71450       51.70577       74.21151
H         58.31793       53.03157       76.28449
H         59.18342       50.06410       76.21426
H         57.80537       50.73374       75.28903
H         58.02398       50.83017       78.36060
H         57.07863       49.63666       77.40336
N         61.22442       51.60971       77.34522
C         62.25272       51.72361       78.35911
H         63.21273       51.99934       77.87320
H         62.01544       52.49647       79.12011
H         62.37638       50.74759       78.87146
H         61.37679       50.91992       76.59443
Ca        56.54149       45.55649       69.48686
O         59.71993       47.09657       67.84258
H         59.72640       47.87855       67.23513
H         59.86936       46.31952       67.24740
O         56.38706       42.83720       69.91134
H         55.64010       43.22096       70.43805
H         55.95696       42.18285       69.30801
O         57.65508       43.40294       67.25069
H         57.45113       43.28282       66.28960
H         58.30925       42.68904       67.45838
O         56.91618       48.40004       68.75520
H         56.02763       48.82469       68.65246
H         57.49856       48.88330       68.11717
O         59.57171       44.40220       69.54511
H         60.34799       43.79781       69.43493
H         59.45393       44.48004       70.52424
O         56.51486       46.54454       66.16098
H         55.60387       46.18034       66.02875
H         56.38396       47.52496       66.20034
O         57.40279       47.35433       71.59052
H         56.80007       47.35216       72.37517
H         57.95786       46.54250       71.70010

Ca 1.0



