%chk=apoCaM-CA-Ng.loop4.water5.frame927.chk
%nprocshared=20
%mem=10GB
%nosave
#b3lyp/svp scf=(tight,noincore,xqc) Test 
#IOP(5/87=12) Density=Current Pop=(MK,readradii) iop(6/33=2) iop(6/42=6)

apoCaM-CA-Ng.loop4.water5.frame927 

   -3  1 
C        -16.19570       -6.95527      100.11714
C        -17.34401       -7.86609      100.44140
O        -18.47627       -7.53728      100.12110
H        -15.49897       -7.47712       99.42764
H        -16.55427       -6.02733       99.62234
H        -15.64053       -6.68571      101.03650
N        -17.10673       -9.06789      101.03970
C        -18.12551      -10.08553      101.28947
C        -18.80543      -10.44461       99.97854
O        -20.02522      -10.41927       99.88234
C        -19.13201       -9.65106      102.37832
C        -18.45682       -9.35582      103.68826
O        -18.57290       -8.25753      104.20722
O        -17.74182      -10.31176      104.31128
H        -16.13055       -9.31137      101.26881
H        -17.60769      -10.99973      101.65644
H        -19.86086      -10.47211      102.55042
H        -19.69865       -8.76271      102.03657
N        -18.03483      -10.71953       98.89201
C        -18.58302      -10.96388       97.56499
C        -19.14247      -12.37865       97.51376
O        -18.35109      -13.29826       97.67160
C        -17.46465      -10.77473       96.48540
C        -16.95315       -9.30447       96.50828
C        -17.97357      -11.14680       95.07694
C        -15.77412       -9.03825       95.57184
H        -17.01036      -10.67945       99.00726
H        -19.34286      -10.19173       97.33754
H        -16.62106      -11.45833       96.73190
H        -16.60705       -9.03924       97.52818
H        -17.78458       -8.61361       96.24610
H        -18.78715      -10.46258       94.76234
H        -17.15604      -11.09735       94.33129
H        -18.34555      -12.19177       95.04720
H        -16.05290       -9.18675       94.50985
H        -15.45038       -7.98193       95.68465
H        -14.92178       -9.70092       95.83100
N        -20.44525      -12.68933       97.24332
C        -21.56528      -11.76095       97.12096
C        -22.75917      -12.37409       97.82926
O        -23.16266      -13.47326       97.47180
C        -21.87254      -11.48946       95.64061
C        -23.02973      -10.54010       95.47708
O        -22.97780       -9.30622       96.01631
O        -24.02016      -10.88297       94.85199
H        -20.66006      -13.69260       97.12366
H        -21.33345      -10.78909       97.59638
H        -22.08335      -12.44477       95.11349
H        -20.98308      -11.02367       95.17180
N        -23.36041      -11.72433       98.86013
C        -24.41539      -12.31142       99.66038
C        -25.68387      -11.51343       99.55296
O        -26.35379      -11.58692       98.53254
H        -23.02980      -10.78500       99.12878
H        -24.05517      -12.33056      100.71105
H        -24.64061      -13.36502       99.38466
N        -26.08878      -10.74954      100.60279
C        -27.37728      -10.06768      100.67253
C        -27.68384       -9.07411       99.54988
O        -28.82796       -8.64440       99.50836
C        -27.56086       -9.42632      102.07525
C        -26.43730       -8.50811      102.49647
O        -25.69962       -8.81104      103.58214
O        -26.18685       -7.49165      101.87682
H        -25.47088      -10.71421      101.42798
H        -28.16092      -10.85206      100.57512
H        -27.59759      -10.25250      102.81798
H        -28.53058       -8.88627      102.13141
N        -26.79275       -8.68012       98.58782
C        -27.19384       -7.79334       97.49233
C        -27.60674       -6.39560       97.94403
O        -28.10332       -5.63308       97.12905
H        -25.82581       -9.03371       98.59725
H        -28.04677       -8.26925       96.96096
H        -26.36048       -7.68705       96.76410
N        -27.39166       -5.98748       99.22255
C        -27.71218       -4.68782       99.79528
C        -26.98932       -3.55022       99.09959
O        -27.54241       -2.46505       98.97134
C        -29.22751       -4.44944       99.96564
C        -29.89484       -5.57218      100.78023
C        -31.32080       -5.26796      101.17116
N        -32.02563       -6.17351      101.88797
O        -31.84259       -4.20612      100.86221
H        -26.91220       -6.62897       99.85454
H        -27.28847       -4.70048      100.82604
H        -29.73024       -4.35275       98.97889
H        -29.34903       -3.49410      100.52313
H        -29.32224       -5.74004      101.71797
H        -29.88319       -6.50440      100.18262
H        -31.60239       -7.07364      102.15869
H        -32.99501       -5.97449      102.17648
N        -25.70266       -3.71887       98.69079
C        -24.84482       -2.63676       98.22029
C        -23.58150       -2.53418       99.08430
O        -22.75578       -1.67543       98.82278
C        -24.47116       -2.84748       96.72493
C        -23.60707       -4.10010       96.48884
C        -25.73380       -2.91360       95.85298
H        -25.30272       -4.66842       98.73892
H        -25.37718       -1.66236       98.29700
H        -23.87979       -1.96523       96.39318
H        -22.66119       -4.03952       97.06721
H        -24.14497       -5.02672       96.77679
H        -23.33577       -4.17460       95.41435
H        -26.34574       -1.99688       95.98887
H        -25.45682       -2.99219       94.78042
H        -26.35160       -3.79742       96.11803
N        -23.34902       -3.42873      100.09297
C        -22.11077       -3.53920      100.84241
C        -22.41356       -3.53881      102.33073
O        -23.38933       -4.15511      102.72920
C        -21.49377       -4.89997      100.47311
C        -20.22118       -5.13985      101.23093
N        -20.15216       -6.13461      102.14313
O        -19.25635       -4.41683      101.03789
H        -24.04411       -4.14754      100.31695
H        -21.38086       -2.74349      100.57855
H        -21.28220       -4.94705       99.38230
H        -22.22749       -5.70438      100.70564
H        -20.96478       -6.74008      102.32915
H        -19.29137       -6.29103      102.67951
N        -21.55945       -2.94407      103.22065
C        -21.78008       -3.03924      104.66953
C        -20.78059       -2.18500      105.44631
O        -19.77636       -1.77833      104.88651
C        -21.64876       -4.52691      105.12077
C        -22.44841       -4.87167      106.35161
C        -23.75612       -5.36650      106.19373
C        -21.91898       -4.73962      107.64390
C        -24.52591       -5.70709      107.30509
C        -22.69541       -5.07646      108.75972
C        -23.99982       -5.55943      108.59442
O        -24.73649       -5.88123      109.67666
H        -20.75235       -2.43049      102.84397
H        -22.80550       -2.64669      104.84607
H        -20.58839       -4.85600      105.19512
H        -22.03643       -5.20409      104.33643
H        -24.18289       -5.48897      105.20521
H        -20.90989       -4.37741      107.78797
H        -25.53042       -6.08511      107.16008
H        -22.28259       -4.96445      109.75396
H        -25.64121       -6.21773      109.59906
N        -21.00719       -1.86118      106.75449
C        -20.04033       -1.12163      107.56245
C        -19.77393       -1.88968      108.84895
O        -20.71747       -2.05346      109.60941
C        -20.58164        0.27929      107.91144
C        -20.88223        1.11665      106.66046
C        -21.35716        2.49005      107.03899
O        -22.58611        2.90418      106.67593
O        -20.62969        3.24078      107.66984
H        -21.90084       -2.13127      107.18688
H        -19.10772       -0.97669      106.99629
H        -19.81512        0.80530      108.52419
H        -21.51373        0.18984      108.51285
H        -21.67173        0.61366      106.06086
H        -19.96858        1.21205      106.03513
N        -18.56264       -2.41405      109.20853
C        -17.32808       -2.39354      108.42753
C        -16.81852       -0.98198      108.20590
O        -16.58035       -0.26943      109.17130
C        -16.25004       -3.23496      109.16217
C        -14.87887       -3.28791      108.46555
C        -14.95560       -3.85865      107.08048
O        -14.58339       -3.19537      106.12597
O        -15.42170       -5.10681      106.88504
H        -18.53960       -2.91273      110.11361
H        -17.52371       -2.88650      107.45217
H        -16.63126       -4.27406      109.27840
H        -16.09129       -2.81878      110.18185
H        -14.19838       -3.92467      109.07084
H        -14.44000       -2.26719      108.42869
N        -16.59311       -0.53598      106.93684
C        -16.06665        0.77382      106.62013
H        -15.11511        0.65539      106.05911
H        -16.79370        1.31482      105.97935
H        -15.86757        1.38080      107.52694
H        -16.79042       -1.15988      106.14144
Ca       -13.85580       -5.04116      103.77391
O        -15.18025       -7.57596      104.89351
H        -15.89676       -7.91483      104.30225
H        -14.60667       -8.36520      105.05785
O        -17.21172       -3.33350      104.81651
H        -17.88147       -3.96469      105.18180
H        -17.63979       -2.94680      104.01256
O        -16.66455       -5.43334      103.05432
H        -17.03517       -6.34075      102.93173
H        -17.23772       -4.85297      102.49625
O        -15.44333       -2.87502      101.60242
H        -16.10728       -2.17881      101.83676
H        -15.80516       -3.29782      100.78329
O        -12.29630       -2.47377      103.56745
H        -12.60902       -1.72845      104.13910
H        -12.77303       -2.34590      102.70900

Ca 1.0



