%chk=apoCaM-CA-Ng.loop3.water3.frame612.chk
%nprocshared=20
%mem=10GB
%nosave
#b3lyp/svp scf=(tight,noincore,xqc) Test 
#IOP(5/87=12) Density=Current Pop=(MK,readradii) iop(6/33=2) iop(6/42=6)

apoCaM-CA-Ng.loop3.water3.frame612 

   0  1 
C         90.42049       25.45274       83.26390
C         91.90936       25.27039       83.25785
O         92.57883       25.95369       82.49678
H         90.18063       26.50346       83.53219
H         90.01289       25.23365       82.25511
H         89.93165       24.78111       84.00011
N         92.50437       24.36799       84.09009
C         93.95016       24.18762       84.15428
C         94.47628       23.74537       82.79801
O         94.02249       22.73906       82.27061
C         94.32034       23.19494       85.27606
C         95.79624       23.13977       85.57548
O         96.23872       22.34601       86.56865
O         96.59643       23.81976       84.95313
H         91.90558       23.81073       84.71899
H         94.39484       25.16476       84.43632
H         93.94682       22.17948       85.02347
H         93.82532       23.52816       86.21365
N         95.40615       24.50649       82.15676
C         95.84568       24.26377       80.78096
C         96.59284       22.94208       80.62861
O         96.78101       22.50098       79.50340
C         96.72522       25.44134       80.29087
C         95.96386       26.78486       80.35404
C         96.87082       27.98804       80.06915
C         96.17204       29.32819       80.37681
N         94.98282       29.55190       79.55444
H         95.77256       25.32273       82.66577
H         94.93503       24.21965       80.14262
H         97.06602       25.26851       79.24637
H         97.62269       25.49408       80.94391
H         95.55330       26.94845       81.36576
H         95.11204       26.75296       79.64263
H         97.22849       27.95961       79.01802
H         97.75533       27.93222       80.74231
H         96.89704       30.15309       80.20303
H         95.88362       29.35849       81.45117
H         94.58846       30.49303       79.78302
H         95.23573       29.52424       78.54088
H         94.24801       28.83923       79.76358
N         97.07226       22.27509       81.71475
C         97.76126       20.99196       81.67176
C         97.05479       19.99141       82.58604
O         96.68378       18.93056       82.10379
C         99.27479       21.17496       81.96209
C         99.62487       22.18455       83.02747
O         99.23203       22.03092       84.29892
O        100.26393       23.17885       82.72349
H         96.97625       22.71451       82.63793
H         97.72815       20.54808       80.64963
H         99.72934       21.56269       81.02211
H         99.74771       20.18959       82.16460
N         96.80335       20.26708       83.89832
C         96.12025       19.36189       84.81362
C         96.96715       19.00310       86.02397
O         96.46367       18.29560       86.88589
H         97.07323       21.17785       84.27558
H         95.82202       18.41859       84.30827
H         95.19477       19.86488       85.16630
N         98.25856       19.42464       86.15207
C         99.14681       19.07130       87.25492
C         99.67866       20.33025       87.93583
O         99.44607       21.42244       87.43554
C        100.30450       18.25781       86.62400
C        101.36963       17.79154       87.57837
N        101.07442       16.94236       88.58760
O        102.51924       18.17974       87.43035
H         98.67342       19.98981       85.40317
H         98.60812       18.45969       88.01084
H        100.78489       18.89112       85.84253
H         99.88069       17.36440       86.11656
H        100.11237       16.60174       88.72436
H        101.81274       16.62821       89.23432
N        100.44355       20.25212       89.06538
C        101.15489       21.39660       89.61125
C        100.26262       22.52045       90.07434
O         99.07325       22.32501       90.28118
H        100.60267       19.33939       89.51296
H        101.81460       21.78128       88.80399
H        101.80849       21.09151       90.45636
N        100.80513       23.76777       90.19736
C        100.05114       24.97324       90.54393
C         98.90037       25.21147       89.57394
O         98.71435       24.43190       88.65098
C        101.00658       26.19383       90.55502
C        102.04759       26.08292       91.64409
C        101.66225       26.14935       92.99435
C        103.40733       25.92680       91.32704
C        102.61949       26.06113       94.00902
C        104.36268       25.82945       92.34439
C        103.97107       25.89843       93.68966
O        104.88133       25.81131       94.68065
H        101.81192       23.86364       89.99316
H         99.60226       24.84350       91.55325
H        100.46136       27.14547       90.72361
H        101.48554       26.26378       89.55302
H        100.62098       26.28036       93.26157
H        103.72830       25.87213       90.29441
H        102.30967       26.12076       95.04498
H        105.40639       25.70207       92.08616
H        105.82603       25.69735       94.50394
N         98.04441       26.25410       89.77785
C         96.79637       26.48103       89.05251
C         97.01217       26.70793       87.55604
O         97.47004       25.80749       86.87171
C         95.79466       25.30219       89.29824
C         94.38953       25.55814       88.68479
C         95.67458       24.95598       90.79675
C         93.59765       26.70640       89.32390
H         98.23653       26.89719       90.56138
H         96.34214       27.39477       89.49063
H         96.19458       24.39402       88.79744
H         93.78273       24.63267       88.79406
H         94.48923       25.75567       87.59710
H         95.32853       25.82751       91.38915
H         94.96685       24.11175       90.94017
H         96.65374       24.63399       91.20820
H         92.61362       26.79815       88.81859
H         93.39993       26.50605       90.39742
H         94.12613       27.67465       89.22149
N         96.60449       27.86722       86.96616
C         96.56964       28.05134       85.51633
C         97.31079       29.30617       85.05822
O         97.10724       29.71134       83.91983
C         95.08459       28.10791       85.11538
O         94.95727       28.13407       83.71936
H         96.19355       28.60877       87.55356
H         97.00168       27.18130       84.97812
H         94.58982       28.99930       85.55820
H         94.59158       27.19260       85.51648
H         94.05903       27.77339       83.50779
N         98.17606       29.98772       85.86466
C         98.69368       31.30440       85.49566
C        100.00067       31.63240       86.20283
O        100.06427       31.43642       87.40963
C         97.65329       32.34994       85.89933
H         98.36218       29.63290       86.81508
H         98.80579       31.38576       84.39847
H         97.47088       32.31729       86.99498
H         98.00750       33.36378       85.62385
H         96.69438       32.15892       85.37277
N        101.06543       32.23560       85.58798
C        101.12960       32.63891       84.18142
C        102.23945       33.67116       83.99103
O        103.37028       33.35830       84.33854
C        101.41678       31.43131       83.28007
H        101.85318       32.50304       86.20022
H        100.16622       33.07374       83.87732
H        100.63654       30.65140       83.37099
H        101.45036       31.76214       82.21870
H        102.39500       30.97348       83.53951
N        102.05467       34.91254       83.44111
C        100.80618       35.43906       82.89247
C         99.70350       35.54905       83.92998
O         98.60474       35.08210       83.66263
C        101.00558       36.78898       82.14006
C        101.32342       38.05948       82.95879
C        102.66738       38.04695       83.62627
O        103.68393       37.94527       82.95783
O        102.76182       38.18977       84.96179
H        102.89768       35.49622       83.35320
H        100.46985       34.73663       82.09587
H        100.04972       37.00077       81.61063
H        101.78273       36.65552       81.35523
H        100.52204       38.23844       83.70459
H        101.31479       38.92551       82.26139
N         99.92789       36.13227       85.13977
C         98.90850       36.26807       86.16065
H         97.92059       35.88385       85.83004
H         99.21818       35.70629       87.06633
H         98.79221       37.34049       86.42119
H        100.86926       36.48229       85.36313
Ca        99.47337       23.72049       85.77315
O        100.56938       26.25852       86.73335
H        100.22879       27.12477       87.06989
H        101.20046       26.49909       86.00955
O         98.84297       25.79291       83.63461
H         99.21058       25.56406       82.74545
H         99.46972       26.47042       83.99208
O        102.37224       23.36406       85.72307
H        102.42219       22.77648       86.51804
H        101.95624       22.79809       85.02523

Ca 1.0



