%chk=apoCaM-CA-Ng.loop4.water5.frame815.chk
%nprocshared=20
%mem=10GB
%nosave
#b3lyp/svp scf=(tight,noincore,xqc) Test 
#IOP(5/87=12) Density=Current Pop=(MK,readradii) iop(6/33=2) iop(6/42=6)

apoCaM-CA-Ng.loop4.water5.frame815 

   -3  1 
C         81.82665        5.32134       95.91294
C         81.59582        6.03532       97.21240
O         80.50485        5.95788       97.75449
H         82.65901        4.59527       96.03027
H         80.91549        4.77349       95.59195
H         82.09734        6.05744       95.12649
N         82.60285        6.76665       97.76292
C         82.52238        7.50940       99.01807
C         82.36205        6.57663      100.21491
O         81.49321        6.78110      101.05189
C         81.44765        8.61874       98.95258
C         81.68412        9.53987       97.78715
O         80.83644        9.65956       96.91698
O         82.83343       10.23588       97.69670
H         83.49986        6.80978       97.25382
H         83.50703        8.00874       99.16330
H         81.47382        9.21942       99.88672
H         80.43546        8.16886       98.86871
N         83.21645        5.52510      100.35394
C         83.24331        4.62701      101.51069
C         83.76976        5.38429      102.73312
O         84.82385        5.99129      102.60664
C         84.08751        3.33646      101.19784
C         85.57390        3.59638      100.81928
C         83.34808        2.51584      100.11995
C         86.38547        2.30902      100.64800
H         83.88057        5.36620       99.58516
H         82.21100        4.27306      101.70911
H         84.11542        2.71038      102.10961
H         86.06599        4.16251      101.63399
H         85.66244        4.18213       99.88298
H         83.82296        1.52885       99.95855
H         82.30654        2.30743      100.44857
H         83.30979        3.06161       99.15428
H         87.44538        2.56577      100.44107
H         86.34345        1.69966      101.57595
H         86.01869        1.70608       99.79340
N         83.13086        5.45931      103.94547
C         81.89974        4.76889      104.33728
C         81.44789        5.29209      105.70409
O         81.41408        4.54792      106.67681
C         82.13372        3.23519      104.40394
C         80.88909        2.43054      104.67454
O         79.79392        2.96315      104.74820
O         80.98336        1.09388      104.80270
H         83.57843        6.06275      104.65571
H         81.09824        5.00022      103.60279
H         82.89416        3.02066      105.18784
H         82.51357        2.85308      103.45390
N         81.10354        6.59905      105.84680
C         80.73833        7.18441      107.12596
C         79.41685        6.70983      107.70954
O         79.07268        7.22720      108.76308
H         81.15753        7.22140      105.02548
H         80.64003        8.28418      106.98578
H         81.55910        7.01289      107.85521
N         78.58966        5.81222      107.08530
C         77.22666        5.55223      107.55861
C         76.85496        4.09566      107.82701
O         75.85871        3.90349      108.51268
C         76.22458        6.19158      106.57155
C         76.50837        5.86469      105.12002
O         76.76268        6.76687      104.33854
O         76.52423        4.59760      104.67337
H         78.87623        5.39878      106.18845
H         77.06435        6.05185      108.53941
H         76.30685        7.29497      106.68019
H         75.18412        5.90714      106.84118
N         77.52338        3.02142      107.31974
C         77.08478        1.64891      107.58289
C         75.69440        1.30361      107.03344
O         75.23007        0.20216      107.28908
H         78.35951        3.16829      106.74177
H         77.09363        1.48324      108.68152
H         77.80985        0.93741      107.12847
N         75.00172        2.16364      106.22967
C         73.71616        1.90270      105.58766
C         73.71225        0.68102      104.68330
O         72.64057        0.20262      104.33784
C         72.50371        2.00073      106.53944
C         72.36656        3.43167      107.10378
C         71.01454        3.71992      107.71306
N         70.72885        4.97194      108.14049
O         70.16000        2.84848      107.78687
H         75.42817        3.05746      105.99106
H         73.54741        2.73129      104.86315
H         72.53338        1.24023      107.34920
H         71.59746        1.81670      105.92047
H         72.47200        4.15452      106.26558
H         73.17336        3.63125      107.84038
H         71.42925        5.72475      108.06615
H         69.79926        5.19685      108.52512
N         74.87000        0.23835      104.12019
C         74.91881       -0.74085      103.03941
C         75.52795       -0.12279      101.78131
O         75.61614       -0.82366      100.78181
C         75.70917       -2.00517      103.47374
C         77.16448       -1.69445      103.86681
C         74.99238       -2.72597      104.62288
H         75.75954        0.66070      104.41842
H         73.89297       -1.06819      102.75872
H         75.73212       -2.70850      102.61128
H         77.21200       -1.03941      104.76158
H         77.70136       -2.63659      104.10468
H         77.69965       -1.19872      103.02971
H         75.53240       -3.66093      104.88351
H         74.93786       -2.08203      105.52574
H         73.96007       -2.99983      104.31588
N         75.98716        1.16642      101.75507
C         76.66209        1.76720      100.61434
C         75.90870        3.00956      100.15441
O         74.94687        3.40605      100.80193
C         78.10558        2.07481      101.06996
C         79.00692        2.63785      100.00773
N         79.59201        3.84529      100.17752
O         79.23100        1.99058       98.99545
H         75.90594        1.76607      102.58735
H         76.69223        1.05250       99.76266
H         78.56872        1.12729      101.42302
H         78.06349        2.77056      101.93688
H         79.42265        4.40454      101.02650
H         80.22745        4.21800       99.46143
N         76.25783        3.63871       98.99533
C         75.53499        4.79757       98.46342
C         75.84074        4.98042       96.97355
O         76.77544        4.37119       96.46843
C         75.82417        6.04079       99.35551
C         74.92170        7.23474       99.13287
C         75.13038        8.12489       98.06628
C         73.86571        7.48427      100.03041
C         74.28410        9.22595       97.88731
C         73.02164        8.58218       99.84922
C         73.22363        9.45466       98.77710
O         72.39631       10.50716       98.61542
H         77.01257        3.21131       98.44366
H         74.45220        4.54292       98.51404
H         76.89215        6.34506       99.30225
H         75.66773        5.72452      100.40717
H         75.94849        7.96892       97.37503
H         73.68609        6.82253      100.86909
H         74.45346        9.90093       97.05813
H         72.20834        8.75320      100.54400
H         72.49578       11.13451       97.88548
N         75.02013        5.72287       96.17827
C         75.15569        5.77827       94.72469
C         75.44235        7.19936       94.28986
O         74.63970        8.06769       94.60490
C         73.85385        5.28489       94.06623
C         73.49858        3.85293       94.49187
C         72.22575        3.40174       93.83771
O         71.15953        3.07302       94.59222
O         72.15124        3.32556       92.62167
H         74.21843        6.21194       96.60323
H         75.96679        5.10919       94.38446
H         73.97675        5.32204       92.96082
H         73.01423        5.95880       94.35027
H         73.36252        3.81611       95.59490
H         74.31951        3.15764       94.21418
N         76.55156        7.56563       93.58245
C         77.60907        6.67218       93.10396
C         77.10906        5.74533       92.01578
O         76.54721        6.21498       91.03594
C         78.80392        7.49621       92.56904
C         79.48749        8.19599       93.75140
C         80.68371        9.01528       93.39549
O         81.65602        8.50687       92.85989
O         80.73610       10.28719       93.82911
H         76.65108        8.57363       93.38122
H         78.00560        6.06554       93.94865
H         78.46485        8.22321       91.79695
H         79.54705        6.81154       92.10123
H         79.83457        7.41759       94.46433
H         78.76498        8.85108       94.28093
N         77.34094        4.40410       92.11112
C         76.95020        3.44343       91.10032
H         76.39420        3.91156       90.26197
H         77.86066        2.95682       90.68897
H         76.30857        2.66486       91.56244
H         77.85323        4.03817       92.92807
Ca        82.71259       11.26710       94.26608
O         85.22812       11.90671       95.80806
H         85.97960       11.71717       96.42381
H         85.56308       12.62793       95.21799
O         82.59495       13.29221       97.15208
H         81.87008       13.27805       97.82646
H         83.41999       13.44624       97.67740
O         82.79429       14.16143       94.05129
H         81.95045       14.23808       93.53895
H         83.49648       14.05900       93.36058
O         79.89165       12.56702       95.55748
H         79.13357       12.43544       94.93417
H         79.49286       12.46932       96.45834
O         84.10146       11.22501       91.77763
H         84.87793       10.61439       91.83886
H         83.31581       10.62259       91.74657

Ca 1.0



