%chk=apoCaM-CA-Ng.loop4.water4.frame129.chk
%nprocshared=20
%mem=10GB
%nosave
#b3lyp/svp scf=(tight,noincore,xqc) Test 
#IOP(5/87=12) Density=Current Pop=(MK,readradii) iop(6/33=2) iop(6/42=6)

apoCaM-CA-Ng.loop4.water4.frame129 

   -3  1 
C         54.68771       63.17996       22.48533
C         55.95545       63.22423       23.28234
O         56.86057       62.48030       22.95515
H         53.93747       63.89981       22.87096
H         54.91382       63.43238       21.42698
H         54.26110       62.15581       22.52733
N         56.10374       64.09004       24.32585
C         57.31949       64.22751       25.12423
C         58.49242       64.65154       24.25956
O         59.47275       63.93888       24.16796
C         57.53881       63.04043       26.10462
C         57.70199       61.63041       25.58521
O         58.84261       61.21763       24.99785
O         56.86462       60.79291       25.88188
H         55.32173       64.72398       24.54934
H         57.16669       65.08380       25.82071
H         56.64339       63.03840       26.76625
H         58.41090       63.26631       26.75663
N         58.42821       65.86565       23.63324
C         59.43289       66.52306       22.78940
C         60.71682       66.82921       23.56442
O         60.92850       67.98519       23.90387
C         59.66735       65.79898       21.43138
C         60.53764       66.64318       20.45628
C         58.33506       65.42053       20.75686
C         59.95053       67.99822       20.03383
H         57.56416       66.41032       23.78515
H         58.97382       67.50464       22.54258
H         60.20347       64.84383       21.61933
H         60.69334       66.04793       19.53435
H         61.52958       66.83702       20.90998
H         57.76160       64.71800       21.39504
H         57.70207       66.31224       20.57309
H         58.52618       64.90752       19.79031
H         59.83548       68.68237       20.89800
H         60.64258       68.48860       19.31726
H         58.97289       67.87667       19.52550
N         61.60838       65.85229       23.89776
C         62.73359       66.06305       24.80025
C         63.99916       66.54911       24.10527
O         64.57016       67.50720       24.60680
C         63.02935       64.78760       25.62882
C         61.89333       64.36998       26.53242
O         62.04697       63.29538       27.32890
O         60.84663       64.99796       26.57366
H         61.43929       64.89179       23.58179
H         62.45668       66.82348       25.56780
H         63.90483       64.98575       26.28515
H         63.28587       63.93657       24.96949
N         64.57449       65.95660       23.01681
C         63.94996       64.93548       22.19074
C         64.89472       64.45621       21.09797
O         65.52654       65.30493       20.48425
H         65.49499       66.32111       22.72407
H         63.07269       65.39496       21.69883
H         63.58090       64.11236       22.80011
N         65.02655       63.14940       20.70486
C         64.22453       62.00900       21.15037
C         62.74794       62.33313       20.95912
O         62.00750       62.33809       21.93063
C         64.61166       61.53324       22.56970
C         66.07063       61.18045       22.64243
O         66.53289       60.31234       21.91883
O         66.87549       61.82020       23.51184
H         65.68406       62.96251       19.93106
H         64.45213       61.13700       20.49685
H         64.02070       60.62456       22.81461
H         64.39927       62.28471       23.34755
N         62.23723       62.68783       19.74185
C         62.98117       62.66868       18.49502
C         63.23158       64.06074       17.98882
O         62.72005       65.02367       18.54034
H         61.26642       63.01510       19.69269
H         62.43253       62.07237       17.73475
H         63.96218       62.18138       18.61382
N         64.09075       64.23693       16.95208
C         64.45675       65.55512       16.44941
C         63.33828       66.17649       15.61540
O         63.48705       67.32026       15.20531
C         65.78656       65.42145       15.67286
C         66.40352       66.75617       15.23482
C         67.79452       66.53754       14.69951
N         68.86200       67.11154       15.30316
O         67.96159       65.83083       13.71650
H         64.56110       63.40222       16.56770
H         64.66723       66.21045       17.32508
H         65.65669       64.75273       14.79317
H         66.51012       64.94056       16.37086
H         66.44672       67.43719       16.11220
H         65.79121       67.23392       14.44366
H         68.74291       67.70832       16.13506
H         69.81431       66.95583       14.94171
N         62.19083       65.49607       15.32069
C         61.12413       66.03350       14.48146
C         60.94039       65.21203       13.20895
O         60.15838       65.62687       12.36805
C         59.79854       66.16437       15.27828
C         59.94319       67.20068       16.40059
C         59.32208       64.82812       15.86311
H         62.06584       64.54063       15.68128
H         61.39425       67.05240       14.12490
H         59.01106       66.53747       14.58659
H         60.22839       68.18593       15.97394
H         58.97716       67.32479       16.93470
H         60.71875       66.89025       17.13179
H         59.19262       64.06969       15.06279
H         60.04074       64.44103       16.61391
H         58.34608       64.97265       16.37242
N         61.65137       64.06727       12.97629
C         61.62369       63.35107       11.70909
C         61.07014       61.94420       11.86570
O         60.28500       61.54470       11.01481
C         63.05297       63.31111       11.12638
C         63.62818       64.70076       10.95376
N         63.03770       65.60721       10.13846
O         64.64204       65.00994       11.56246
H         62.29932       63.70866       13.68699
H         60.98910       63.87361       10.96020
H         63.04314       62.80425       10.13630
H         63.71279       62.72589       11.80481
H         62.18584       65.37174        9.60972
H         63.43489       66.55320       10.03405
N         61.45240       61.11912       12.88648
C         61.07865       59.70829       12.94953
C         60.29620       59.34151       14.20150
O         60.77151       59.60222       15.29797
C         62.35573       58.84704       12.93316
C         63.22489       59.10507       11.72837
C         62.73298       58.89734       10.42883
C         64.54825       59.54435       11.89950
C         63.55242       59.12653        9.32032
C         65.36706       59.76690       10.79048
C         64.87152       59.55744        9.49595
O         65.65321       59.76193        8.41716
H         62.08737       61.47641       13.61585
H         60.47468       59.42056       12.06268
H         62.07118       57.77184       12.93897
H         62.93582       59.04569       13.86271
H         61.71785       58.55639       10.27123
H         64.95101       59.70849       12.89152
H         63.16242       58.96304        8.32383
H         66.38674       60.09835       10.93992
H         66.57464       60.04688        8.49766
N         59.16088       58.58211       14.08443
C         58.47460       57.87044       15.16813
C         57.54544       58.71735       16.02755
O         56.56457       58.16900       16.51389
C         59.47136       57.02463       16.00061
C         58.80231       55.99733       16.92423
C         59.84376       55.20637       17.66565
O         60.69562       55.82871       18.50373
O         59.92152       53.99742       17.51581
H         58.84766       58.34259       13.13063
H         57.80047       57.14477       14.65592
H         60.11151       57.69189       16.61468
H         60.12231       56.46395       15.29301
H         58.17847       55.30995       16.31117
H         58.15357       56.50089       17.66990
N         57.78619       60.02736       16.30805
C         56.92849       60.79685       17.20796
C         55.56480       61.11052       16.60413
O         54.73482       61.65047       17.32365
C         57.60274       62.12949       17.58545
C         58.97747       61.99107       18.25881
C         58.91866       61.38303       19.63029
O         59.30205       62.13476       20.67570
O         58.57717       60.22451       19.79999
H         58.62346       60.47429       15.92106
H         56.77004       60.20549       18.13468
H         56.94490       62.71853       18.26327
H         57.73381       62.70732       16.64848
H         59.37777       63.01940       18.36601
H         59.69413       61.42441       17.63029
N         55.26552       60.84636       15.29849
C         53.99105       61.18058       14.69374
H         53.28948       61.65842       15.40979
H         54.16043       61.88705       13.85399
H         53.51623       60.25872       14.29991
H         55.96646       60.41409       14.68145
Ca        59.33826       61.55093       22.83456
O         61.87290       61.08040       24.55889
H         61.66035       61.88899       25.08683
H         62.73410       60.76107       24.92652
O         57.20768       59.28911       22.51310
H         56.92125       59.16907       21.57328
H         56.36101       59.35152       23.02209
O         61.09573       59.19920       21.65176
H         61.94331       58.82170       21.99735
H         61.00403       58.81635       20.74338
O         60.22350       58.59868       24.61168
H         60.45091       57.70523       24.25184
H         59.27737       58.52091       24.89253

Ca 1.0



