%chk=apoCaM-CA-Ng.loop2.water4.frame236.chk
%nprocshared=20
%mem=10GB
%nosave
#b3lyp/svp scf=(tight,noincore,xqc) Test 
#IOP(5/87=12) Density=Current Pop=(MK,readradii) iop(6/33=2) iop(6/42=6)

apoCaM-CA-Ng.loop2.water4.frame236 

   -2  1 
C         29.33689        2.75179       88.60107
C         29.74938        1.63256       89.51399
O         30.81445        1.70495       90.11029
H         28.37757        3.18596       88.95454
H         30.10440        3.55499       88.58154
H         29.19862        2.36530       87.57037
N         28.93021        0.55719       89.67911
C         29.24021       -0.55887       90.56752
C         30.48597       -1.28681       90.10462
O         30.50903       -1.76100       88.97618
C         28.05887       -1.54851       90.60717
C         28.32699       -2.69090       91.54956
O         28.34934       -3.83816       91.13337
O         28.55279       -2.45181       92.85563
H         28.03550        0.55003       89.16384
H         29.38386       -0.16078       91.59698
H         27.86869       -1.94202       89.58303
H         27.14464       -1.01851       90.94935
N         31.55332       -1.44038       90.94219
C         32.75911       -2.15433       90.54083
C         33.36101       -1.44955       89.34667
O         33.66272       -0.26747       89.44360
C         33.75463       -2.24402       91.70224
H         31.49907       -1.04390       91.89344
H         32.48055       -3.19805       90.27229
H         33.27978       -2.77166       92.55866
H         34.64961       -2.82582       91.39382
H         34.07211       -1.23474       92.03820
N         33.50434       -2.10832       88.16303
C         33.82845       -1.43119       86.91481
C         35.28031       -1.61404       86.50751
O         35.65100       -1.07589       85.47302
C         32.86036       -1.94302       85.82371
C         33.00710       -1.19979       84.52723
O         32.79594        0.12784       84.48790
O         33.33009       -1.79169       83.50976
H         33.28759       -3.11708       88.12443
H         33.66700       -0.33605       87.03267
H         31.81182       -1.81574       86.16935
H         33.04049       -3.02956       85.65821
N         36.17401       -2.32284       87.25759
C         37.55837       -2.48985       86.84901
C         38.44763       -1.39269       87.39036
O         39.41206       -1.70673       88.07298
H         35.86995       -2.79595       88.12056
H         37.63301       -2.52043       85.73988
H         37.92289       -3.47668       87.20830
N         38.20280       -0.08160       87.10386
C         39.07713        1.01458       87.50426
C         38.37465        1.95065       88.46816
O         37.20990        1.75331       88.78670
C         39.53047        1.75692       86.23107
C         40.36465        0.84290       85.36987
N         39.90368        0.39546       84.17942
O         41.46526        0.48712       85.76465
H         37.37490        0.16825       86.54889
H         39.97277        0.63397       88.04320
H         40.13485        2.66003       86.46165
H         38.62378        2.09607       85.68156
H         38.96667        0.65832       83.84164
H         40.47638       -0.24172       83.60619
N         39.07709        2.98220       89.01098
C         38.56067        3.89859       90.01087
C         38.63884        5.32445       89.52784
O         38.84020        5.55722       88.34293
H         40.06264        3.10945       88.73396
H         39.21127        3.79428       90.90561
H         37.51750        3.67009       90.31800
N         38.54797        6.34495       90.42603
C         38.69472        7.74221       90.02881
C         37.45699        8.26311       89.30950
O         37.59666        9.19668       88.53154
C         39.12585        8.66027       91.20444
C         38.12532        8.72983       92.36548
O         40.39506        8.28564       91.68225
H         38.46109        6.10056       91.42253
H         39.54444        7.79284       89.30877
H         39.22773        9.69095       90.79877
H         40.31529        7.39145       92.10496
H         37.98929        7.74448       92.85484
H         38.49312        9.44574       93.13007
H         37.14779        9.08500       92.00618
N         36.22203        7.71091       89.50986
C         35.02015        8.11597       88.78178
C         34.53498        6.92286       87.98712
O         34.35135        5.84974       88.54656
C         33.91332        8.65988       89.72358
C         34.38038        9.89526       90.53635
C         32.63444        9.00199       88.92840
C         34.81816       11.11204       89.70771
H         36.12466        6.94397       90.19267
H         35.25517        8.92975       88.06472
H         33.64659        7.86438       90.45439
H         35.22317        9.59785       91.18056
H         33.55434       10.21277       91.20823
H         32.22298        8.09933       88.42996
H         31.84873        9.39069       89.60929
H         32.83739        9.75819       88.14131
H         35.12420       11.92969       90.39292
H         35.69054       10.87878       89.06711
H         33.99166       11.49014       89.07337
N         34.35612        7.05126       86.64714
C         34.08056        5.93570       85.74981
C         34.35207        6.40036       84.32021
O         33.55779        6.16767       83.42687
C         32.64440        5.40422       85.99038
C         32.31532        4.18715       85.17751
O         31.35867        4.19765       84.42106
O         33.04901        3.06640       85.30846
H         34.50618        7.98903       86.24299
H         34.83079        5.14235       85.96362
H         31.91461        6.21715       85.77423
H         32.52143        5.11775       87.05426
N         35.47241        7.14840       84.08603
C         35.85780        7.79065       82.83159
C         34.67838        8.43477       82.09339
O         33.93442        9.18128       82.71334
C         36.96220        8.83799       83.16050
C         37.43360        9.67177       81.99297
C         38.68914        9.43522       81.41036
C         36.63735       10.72259       81.49909
C         39.12782       10.22008       80.33939
C         37.08264       11.50897       80.43520
C         38.32526       11.25531       79.85210
H         36.08417        7.33272       84.89627
H         36.30954        7.00907       82.19410
H         37.82263        8.27350       83.58449
H         36.61996        9.53828       83.95591
H         39.32421        8.63929       81.77830
H         35.67843       10.94862       81.94539
H         40.09221       10.02732       79.88893
H         36.46468       12.31788       80.06695
H         38.66817       11.86509       79.02686
N         34.48827        8.24360       80.74135
C         33.46612        8.90401       79.92336
C         32.00492        8.57127       80.20046
O         31.16034        9.09819       79.48991
C         33.78799        8.43048       78.49852
C         35.28416        8.27777       78.54895
C         35.45870        7.57759       79.88711
H         33.62740       10.00192       80.01401
H         33.37497        7.40486       78.34425
H         33.40194        9.09250       77.69464
H         35.73791        7.74121       77.68950
H         35.72935        9.29808       78.61568
H         35.20249        6.49721       79.82721
H         36.51726        7.72705       80.18396
N         31.62024        7.71544       81.18436
C         30.22936        7.35821       81.44570
C         29.72962        7.98471       82.73967
O         28.58631        7.73088       83.09539
C         30.08845        5.82781       81.50473
C         30.40141        5.12802       80.17114
C         30.28080        3.63578       80.31807
O         30.57762        2.89900       79.39100
O         29.91650        3.11318       81.50497
H         32.33239        7.30424       81.79109
H         29.55532        7.73461       80.64669
H         29.04458        5.56458       81.78539
H         30.77133        5.44122       82.29246
H         31.44542        5.36024       79.86960
H         29.70782        5.48157       79.37916
N         30.49259        8.85038       83.46909
C         30.01897        9.51702       84.66445
H         28.98264        9.22449       84.93385
H         30.68912        9.27343       85.51422
H         30.03501       10.61452       84.49457
H         31.44417        9.08881       83.16419
Ca        31.32780        1.77439       82.61665
O         29.96240        1.02329       85.27008
H         29.64430        0.14947       85.60977
H         29.15331        1.45667       84.89842
O         33.41183        3.89439       81.34670
H         33.84145        3.72076       82.22147
H         33.98153        3.41922       80.69130
O         30.37024       -0.77596       82.18700
H         29.47946       -1.17545       82.34390
H         30.99829       -1.53994       82.19103
O         33.26973        0.48016       80.95601
H         34.04824        0.19159       80.41851
H         32.54259        0.60983       80.29600

Ca 1.0



