%chk=apoCaM-CA-Ng.loop2.water4.frame1408.chk
%nprocshared=20
%mem=10GB
%nosave
#b3lyp/svp scf=(tight,noincore,xqc) Test 
#IOP(5/87=12) Density=Current Pop=(MK,readradii) iop(6/33=2) iop(6/42=6)

apoCaM-CA-Ng.loop2.water4.frame1408 

   -2  1 
C         72.13554       76.02720       92.38331
C         71.85046       75.27848       91.11152
O         72.78403       75.03533       90.36088
H         73.21791       76.26589       92.46111
H         71.56708       76.98063       92.39407
H         71.85195       75.40687       93.25905
N         70.59844       74.86443       90.76399
C         69.39279       75.08335       91.56032
C         68.37566       75.96372       90.83687
O         67.28746       76.14151       91.36778
C         68.80186       73.72947       92.02640
C         68.34929       72.77480       90.95520
O         68.44675       73.04790       89.77254
O         67.82932       71.58697       91.31684
H         70.50077       74.36103       89.86924
H         69.62806       75.62394       92.49931
H         67.93215       73.93128       92.68878
H         69.57273       73.20897       92.63514
N         68.67744       76.62423       89.67632
C         67.74893       77.56750       89.05262
C         66.53958       76.89361       88.41309
O         65.61819       77.60152       88.03077
C         68.47785       78.39725       87.98709
H         69.62116       76.53003       89.27324
H         67.40124       78.27144       89.84170
H         69.34348       78.92365       88.44398
H         68.85204       77.73997       87.17224
H         67.79980       79.16141       87.55102
N         66.50237       75.54765       88.19972
C         65.40519       74.85036       87.53309
C         64.90294       73.71628       88.41040
O         65.70229       72.90191       88.84327
C         65.84173       74.37352       86.12645
C         67.04160       73.46349       86.02717
O         67.72550       73.06123       87.11020
O         67.41626       73.09655       84.92619
H         67.31825       74.99043       88.47681
H         64.55631       75.54401       87.34238
H         66.07472       75.28098       85.52681
H         64.97716       73.86406       85.64761
N         63.58240       73.60659       88.73345
C         63.08221       72.58666       89.64169
C         63.36233       71.15657       89.13011
O         64.05576       70.43654       90.10946
H         62.90937       74.28933       88.35324
H         61.99021       72.73033       89.80066
H         63.56814       72.73745       90.63029
N         62.11152       70.46883       88.76944
C         62.28287       69.03830       88.43668
C         63.25853       68.83818       87.28938
O         64.23507       68.12435       87.47082
C         60.90757       68.41439       88.12123
C         60.98499       66.92309       87.88692
N         61.40252       66.08477       88.86580
O         60.65160       66.46661       86.80371
H         61.66443       70.97984       87.97360
H         62.67483       68.51271       89.33591
H         60.47326       68.91170       87.22668
H         60.21962       68.59087       88.97637
H         61.67397       66.44347       89.79255
H         61.44525       65.06789       88.70085
N         63.06789       69.45055       86.08520
C         63.99310       69.31748       84.96932
C         65.37732       69.84910       85.30003
O         65.58787       70.31155       86.41127
H         62.23598       70.04305       85.94714
H         63.59178       69.89712       84.10950
H         64.06326       68.24759       84.67858
N         66.39939       69.85445       84.39924
C         66.30123       69.44339       83.00517
C         67.30874       68.34072       82.68528
O         66.91058       67.33987       82.10720
C         66.52628       70.69170       82.11976
C         66.30774       70.39840       80.63319
O         65.61234       71.69155       82.50155
H         67.29811       70.24788       84.71280
H         65.28370       69.06863       82.76562
H         67.57575       71.04688       82.26233
H         66.13029       72.51173       82.71036
H         67.00337       69.61789       80.27334
H         65.26475       70.05657       80.45819
H         66.48056       71.32133       80.03991
N         68.63052       68.46801       83.01138
C         69.68357       67.53733       82.59896
C         70.27336       66.83438       83.82972
O         70.63899       67.54387       84.75735
C         70.80568       68.34655       81.87206
C         70.27731       69.28252       80.75182
C         71.90695       67.41865       81.33114
C         69.58529       68.57787       79.58471
H         68.92858       69.29502       83.54944
H         69.29122       66.80063       81.87598
H         71.27858       69.02063       82.62215
H         71.12841       69.87311       80.34723
H         69.56524       70.01220       81.19122
H         71.50382       66.71193       80.57722
H         72.71897       68.01579       80.86516
H         72.35107       66.82473       82.15338
H         69.23361       69.34340       78.86054
H         70.28405       67.90211       79.05339
H         68.70738       67.99916       79.93388
N         70.49046       65.48057       83.93090
C         70.20461       64.49293       82.88615
C         70.95936       63.16810       83.08749
O         71.55475       62.93759       84.12862
C         68.68573       64.20484       82.79872
C         68.14931       63.59726       84.06945
O         67.65159       62.48288       84.05379
O         68.20434       64.28282       85.22789
H         70.97054       65.16011       84.78541
H         70.58662       64.89835       81.92686
H         68.49330       63.51218       81.95086
H         68.11057       65.12514       82.60167
N         70.96865       62.25327       82.07233
C         71.59799       60.93428       82.12541
C         72.72833       60.85841       81.10899
O         72.49668       61.23280       79.96901
C         70.51941       59.85874       81.83439
C         71.08469       58.45676       81.68613
C         71.74261       58.07822       80.49767
C         70.95188       57.51021       82.71599
C         72.26890       56.79402       80.35069
C         71.48612       56.22386       82.56591
C         72.14501       55.86764       81.38564
H         70.49653       62.50732       81.19171
H         71.98154       60.71387       83.13476
H         69.94527       60.09427       80.91175
H         69.79972       59.89389       82.68193
H         71.84416       58.77191       79.67473
H         70.44890       57.76926       83.63842
H         72.77237       56.51902       79.43213
H         71.39093       55.50098       83.36514
H         72.55656       54.87320       81.26964
N         73.94945       60.29032       81.39718
C         74.36353       59.68923       82.66176
C         74.41199       60.66276       83.81493
O         73.88101       60.36063       84.87350
C         75.77578       59.15949       82.37568
C         75.67162       58.79803       80.91351
C         74.93388       60.01679       80.36656
H         73.69545       58.82744       82.88845
H         76.52286       59.98364       82.43922
H         76.10127       58.34075       83.05355
H         76.63757       58.57604       80.41295
H         75.00810       57.90643       80.82693
H         75.61567       60.89151       80.28217
H         74.49049       59.76423       79.37935
N         75.02249       61.87070       83.66448
C         75.11906       62.83382       84.75016
C         76.15128       62.32894       85.75422
O         77.30418       62.22086       85.35894
C         75.55045       64.21683       84.21260
C         74.51010       64.80757       83.24441
C         74.96939       66.13488       82.71648
O         75.13125       66.29536       81.51710
O         75.19045       67.16026       83.56092
H         75.40814       62.11336       82.73972
H         74.11416       62.98246       85.17877
H         76.53009       64.12758       83.69194
H         75.66923       64.91564       85.07032
H         73.54103       64.94603       83.77024
H         74.34312       64.11769       82.38931
N         75.88486       61.97932       87.04873
C         74.59270       61.97324       87.70542
H         73.74963       62.27654       87.06779
H         74.37980       60.94343       88.06259
H         74.62564       62.65116       88.58293
H         76.67912       61.66419       87.62791
Ca        66.13775       70.11852       89.22187
O         69.21743       70.07866       86.78249
H         68.79030       70.89777       86.43261
H         69.94509       69.89149       86.13907
O         66.38138       68.32495       91.50694
H         67.36808       68.24697       91.48220
H         66.06033       67.60961       90.90200
O         69.69247       69.56178       89.79339
H         70.47950       69.59439       89.19354
H         69.70728       68.64687       90.17136
O         67.21365       67.66333       87.76129
H         67.21074       67.81284       86.78251
H         68.16735       67.72133       88.01975

Ca 1.0



