%chk=apoCaM-CA-Ng.loop1.water5.frame328.chk
%nprocshared=20
%mem=10GB
%nosave
#b3lyp/svp scf=(tight,noincore,xqc) Test 
#IOP(5/87=12) Density=Current Pop=(MK,readradii) iop(6/33=2) iop(6/42=6)

apoCaM-CA-Ng.loop1.water5.frame328 

   0  1 
C         54.44389       73.67531       90.50771
C         53.55874       74.79146       90.03135
O         53.97679       75.55977       89.17719
H         55.36796       74.09104       90.95753
H         53.93184       73.04581       91.26715
H         54.71242       73.02561       89.64785
N         52.29674       74.92020       90.52253
C         51.34642       75.91259       90.03511
C         51.63350       77.33938       90.52607
O         50.81815       78.19035       90.22445
C         49.89908       75.50794       90.41712
C         49.47148       74.19192       89.81204
O         50.08378       73.04221       90.15218
O         48.54346       74.15999       89.01857
H         51.97416       74.22596       91.21355
H         51.35876       75.91283       88.92321
H         49.20732       76.27510       90.01013
H         49.78000       75.47026       91.52126
N         52.74107       77.71178       91.24005
C         52.93955       79.08221       91.73680
C         54.04370       79.81414       90.98591
O         55.08727       79.20712       90.78961
C         53.31861       79.07970       93.22945
C         52.19936       78.57334       94.14312
C         52.55170       78.87536       95.60665
C         51.43702       78.43886       96.56173
N         51.74232       78.84933       97.93277
H         53.47668       77.02036       91.43921
H         52.01129       79.66052       91.64987
H         53.52996       80.13266       93.51551
H         54.24980       78.49557       93.40225
H         52.03745       77.48520       93.98278
H         51.26210       79.11821       93.90019
H         52.69110       79.97487       95.71296
H         53.50229       78.36992       95.88565
H         51.32228       77.33347       96.51615
H         50.47639       78.90799       96.25256
H         52.64531       78.42611       98.24755
H         51.80716       79.89268       97.98615
H         50.97496       78.52994       98.56655
N         53.98099       81.14009       90.61066
C         52.87403       82.09532       90.79197
C         52.49775       82.28648       92.25500
O         51.49058       81.75123       92.69475
C         51.69929       81.82697       89.83291
C         52.13899       82.00693       88.40534
O         53.39617       82.41883       88.14200
O         51.37555       81.75070       87.48973
H         54.82932       81.52846       90.16876
H         53.20651       83.09522       90.45006
H         50.87648       82.54562       90.01759
H         51.32178       80.80351       89.97054
N         53.23151       83.08912       93.08256
C         54.33083       83.90962       92.59038
C         54.97104       84.79991       93.63779
O         54.65383       84.67591       94.81167
H         52.93613       83.16471       94.06738
H         53.89632       84.59721       91.83415
H         55.11503       83.27261       92.12762
N         55.85273       85.78931       93.29561
C         56.24344       86.10449       91.91986
C         55.52652       87.35592       91.45439
O         54.89524       88.02920       92.25923
C         57.77603       86.18888       91.74748
C         58.43083       87.29018       92.54332
O         58.41851       87.26843       93.88945
O         59.01864       88.19144       91.96705
H         56.17770       86.40995       94.05033
H         55.90473       85.30244       91.23606
H         57.99545       86.35292       90.66909
H         58.23457       85.21904       92.03548
N         55.49913       87.67368       90.12838
C         54.71062       88.77619       89.60247
C         53.20844       88.58549       89.77175
O         52.48138       89.49814       89.40494
H         56.03405       87.09996       89.45893
H         54.90983       88.88311       88.51383
H         55.02856       89.71567       90.10382
N         52.66263       87.44676       90.30093
C         51.22948       87.24489       90.49678
C         50.94079       87.08971       91.98793
O         51.88048       87.05257       92.77419
C         50.78212       85.99405       89.69064
C         51.13202       86.12682       88.20310
O         49.39696       85.80665       89.80776
H         53.27097       86.66611       90.58096
H         50.66050       88.13083       90.13896
H         51.31943       85.10852       90.10704
H         49.21019       84.86398       89.55846
H         50.61927       87.00891       87.76425
H         52.22762       86.23374       88.06024
H         50.80761       85.21491       87.65801
N         49.65821       87.01034       92.45308
C         49.32091       86.84219       93.86767
C         48.64246       85.49402       94.12696
O         48.46100       85.14880       95.28391
C         48.47401       88.06531       94.35685
C         48.29466       88.15971       95.89548
C         47.08051       88.09959       93.69646
C         49.61010       88.32474       96.65929
H         48.89019       87.07812       91.77215
H         50.26477       86.82091       94.44683
H         49.01481       88.98739       94.04629
H         47.73980       87.28528       96.29294
H         47.68606       89.06439       96.11776
H         46.52735       89.00912       94.01306
H         47.14526       88.13010       92.59192
H         46.48215       87.21418       93.99273
H         50.25277       87.42732       96.56735
H         50.16046       89.21580       96.28812
H         49.39214       88.47216       97.73818
N         48.27022       84.66453       93.10271
C         47.67754       83.34421       93.31092
C         48.06327       82.38039       92.18542
O         48.68050       82.77350       91.20923
C         46.13981       83.43263       93.51154
C         45.42437       84.14529       92.35188
O         45.82676       84.04017       94.74120
H         48.43147       84.95879       92.13446
H         48.13365       82.89029       94.21918
H         45.72918       82.40227       93.56628
H         45.94586       85.01892       94.64950
H         45.76380       85.20067       92.27155
H         45.62726       83.63031       91.39028
H         44.32837       84.14552       92.53194
N         47.79037       81.05476       92.32963
C         48.27944       80.01844       91.42335
C         47.70143       80.08080       90.01155
O         46.49508       80.19955       89.85590
C         48.05201       78.60727       92.02667
C         46.58434       78.20693       92.22201
O         48.72314       78.52238       93.25840
H         47.30719       80.76342       93.19057
H         49.38464       80.12031       91.35743
H         48.49838       77.88778       91.31239
H         49.06877       77.59495       93.34298
H         46.54193       77.17508       92.63046
H         46.06992       78.88316       92.93377
H         46.03714       78.20335       91.25859
N         48.52821       79.87071       88.93945
C         48.09166       79.66260       87.55867
C         49.32100       79.48479       86.65815
O         49.49643       80.27465       85.74168
C         47.17139       78.41637       87.46321
C         46.57091       78.21900       86.06241
C         45.62928       77.00526       86.04548
C         44.95778       76.83285       84.67669
N         44.06852       75.67071       84.67430
H         49.53291       79.80436       89.12263
H         47.51983       80.55913       87.22990
H         46.31723       78.53003       88.15926
H         47.72983       77.50508       87.76936
H         47.37913       78.06855       85.31439
H         45.99439       79.13035       85.78960
H         44.83601       77.14269       86.81337
H         46.20852       76.08858       86.29272
H         45.73457       76.70220       83.89131
H         44.36615       77.74523       84.43877
H         43.32394       75.78322       85.40052
H         43.61417       75.58762       83.73624
H         44.61550       74.79946       84.86342
N         50.22728       78.48252       86.89220
C         51.46554       78.29202       86.13357
C         51.50298       76.91058       85.51455
O         51.45030       75.92571       86.23839
C         52.67555       78.49443       87.07433
C         54.07850       78.22661       86.48246
C         54.40499       78.96456       85.20514
O         53.89039       78.63414       84.15261
O         55.28334       79.98023       85.20422
H         50.05225       77.83771       87.67746
H         51.54707       79.05248       85.32940
H         52.57272       77.83068       87.95798
H         52.64834       79.53501       87.44584
H         54.22090       77.14058       86.29402
H         54.80932       78.51721       87.26997
N         51.64442       76.77431       84.16552
C         51.79004       75.49936       83.49590
H         52.77115       75.47709       82.97385
H         51.75396       74.64290       84.20046
H         50.98284       75.38336       82.74462
H         51.68223       77.61684       83.57319
Ca        54.47633       81.69974       86.35240
O         56.70060       84.50868       84.39084
H         56.12594       85.05033       83.79344
H         57.60796       84.59009       84.00292
O         52.19378       82.20233       84.08665
H         52.11712       81.22421       84.21717
H         52.01229       82.58631       84.98062
O         53.68409       85.08790       85.47356
H         53.77211       86.05531       85.66536
H         52.86145       85.01837       84.92715
O         57.96595       81.64023       85.32982
H         58.01775       80.65270       85.38019
H         58.41172       81.86822       84.47556
O         55.25965       82.06665       83.07645
H         54.69616       82.68689       82.54967
H         54.95171       81.16479       82.80812

Ca 1.0



