%chk=apoCaM-CA-Ng.loop4.water2.frame445.chk
%nprocshared=20
%mem=10GB
%nosave
#b3lyp/svp scf=(tight,noincore,xqc) Test 
#IOP(5/87=12) Density=Current Pop=(MK,readradii) iop(6/33=2) iop(6/42=6)

apoCaM-CA-Ng.loop4.water2.frame445 

   -3  1 
C         63.44509       61.42017       78.17905
C         62.60426       60.20342       78.42563
O         63.17228       59.15489       78.69158
H         64.11478       61.23932       77.31237
H         62.82089       62.31327       77.96918
H         64.06482       61.62425       79.07815
N         61.23940       60.27424       78.38490
C         60.34431       59.14998       78.65620
C         60.60552       58.60171       80.03957
O         60.93781       57.43830       80.17372
C         60.31135       58.11901       77.48866
C         61.63366       57.55644       77.02431
O         62.26401       56.51222       77.61335
O         62.13982       58.03370       76.02028
H         60.80151       61.18969       78.19891
H         59.30175       59.54252       78.69159
H         59.90171       58.69805       76.62849
H         59.58279       57.30120       77.67521
N         60.47152       59.44265       81.11244
C         60.64186       59.12533       82.53264
C         59.49724       58.26120       83.05710
O         58.70802       58.76568       83.84446
C         62.05624       58.56860       82.85906
C         62.24832       58.26573       84.36909
C         63.15468       59.52236       82.35207
C         62.10069       59.47343       85.30307
H         60.22884       60.42474       80.90526
H         60.54759       60.09821       83.06604
H         62.18900       57.60568       82.32776
H         63.25940       57.83043       84.51185
H         61.51502       57.49574       84.68687
H         64.16030       59.10734       82.57492
H         63.08293       59.65255       81.25511
H         63.06752       60.52654       82.81553
H         62.84218       60.26272       85.06598
H         61.07871       59.90062       85.24943
H         62.27362       59.14830       86.35005
N         59.32236       56.97044       82.66228
C         58.18377       56.15852       83.06946
C         58.19881       55.88013       84.58535
O         57.27493       56.35592       85.22967
C         58.05451       54.91575       82.15890
C         57.85661       55.30439       80.71537
O         56.78584       56.03362       80.34917
O         58.66432       54.95613       79.86792
H         59.99067       56.55857       82.01212
H         57.26064       56.74664       82.85811
H         57.18587       54.30226       82.47803
H         58.96545       54.30821       82.19030
N         59.17313       55.20330       85.27989
C         60.32939       54.53730       84.70781
C         59.94147       53.21103       84.08580
O         58.80444       52.79860       84.27601
H         59.09588       55.17973       86.30901
H         61.05460       54.29546       85.51031
H         60.80525       55.24794       84.01616
N         60.76138       52.47470       83.27696
C         62.14805       52.76723       82.90019
C         62.37363       54.17517       82.40315
O         61.51943       54.69509       81.70868
C         62.62039       51.78934       81.79492
C         61.66432       51.65624       80.61628
O         61.33530       52.65299       79.75401
O         61.14813       50.56527       80.43170
H         60.33668       51.62379       82.87542
H         62.78337       52.61031       83.79335
H         62.69808       50.78614       82.27149
H         63.63809       52.05368       81.43544
N         63.53635       54.85293       82.63862
C         64.67821       54.32174       83.36825
C         64.48148       54.34724       84.86018
O         63.46064       54.82362       85.33406
H         63.64590       55.78396       82.21764
H         65.55641       54.97408       83.17895
H         64.93752       53.30725       83.00088
N         65.48728       53.91161       85.66833
C         65.47320       54.06897       87.11651
C         66.43996       55.17274       87.54086
O         66.41012       55.54122       88.70566
C         65.61220       52.70690       87.83874
C         66.84724       51.86358       87.48316
C         68.13253       52.46083       87.97450
N         68.35717       52.59866       89.30115
O         68.99216       52.79239       87.17360
H         66.33902       53.53645       85.22344
H         64.48233       54.46159       87.43796
H         64.72508       52.10285       87.54628
H         65.55060       52.85585       88.93918
H         66.88178       51.69794       86.38667
H         66.74442       50.86246       87.95601
H         67.65178       52.30296       89.99096
H         69.24808       52.97728       89.64496
N         67.20791       55.84490       86.62028
C         67.81855       57.14600       86.88781
C         69.32991       57.18309       86.72432
O         69.88556       58.24234       86.99150
C         67.14632       58.22670       85.98321
C         65.63833       58.31366       86.26259
C         67.38132       57.99256       84.47640
H         67.26043       55.50901       85.65295
H         67.62893       57.44064       87.94348
H         67.58564       59.21586       86.24110
H         65.45719       58.53731       87.33505
H         65.18342       59.12621       85.65758
H         65.13051       57.35899       86.00793
H         66.93341       58.82227       83.88949
H         68.46687       57.96075       84.24689
H         66.91380       57.05050       84.12383
N         70.07685       56.10611       86.34188
C         71.53848       56.14959       86.31567
C         72.14817       55.78665       84.96810
O         73.36862       55.76514       84.90389
C         72.08741       55.19463       87.39796
C         71.58569       55.54042       88.77850
N         71.83538       56.74865       89.33426
O         70.95140       54.71127       89.40870
H         69.61290       55.20866       86.13550
H         71.91358       57.16838       86.55238
H         73.19785       55.24385       87.41805
H         71.79161       54.15155       87.14960
H         72.37434       57.46546       88.82893
H         71.48521       56.96800       90.27886
N         71.40961       55.49390       83.85231
C         72.05109       55.01366       82.62271
C         71.10578       54.96045       81.43312
O         69.97340       54.53219       81.57981
C         72.72714       53.63194       82.86185
C         71.84366       52.62063       83.57150
C         72.13198       52.27840       84.90604
C         70.74302       52.01272       82.94161
C         71.32700       51.37441       85.60125
C         69.93728       51.10626       83.64015
C         70.22180       50.78860       84.97182
O         69.43002       49.92184       85.63516
H         70.38433       55.58233       83.88233
H         72.85428       55.72703       82.33322
H         73.61306       53.81568       83.50259
H         73.13597       53.21030       81.91854
H         72.97540       52.72332       85.41922
H         70.50408       52.22510       81.91130
H         71.56102       51.13604       86.63134
H         69.08881       50.65061       83.14535
H         69.58862       49.68593       86.56066
N         71.58870       55.28774       80.18931
C         70.88575       55.14808       78.91218
C         69.89035       56.26185       78.62879
O         70.00223       56.85699       77.56453
C         70.31078       53.73455       78.68850
C         71.42999       52.67856       78.74567
C         70.91316       51.30344       78.44617
O         71.03871       50.32255       79.36001
O         70.40189       51.05977       77.36460
H         72.57831       55.56936       80.12109
H         71.65195       55.26416       78.10874
H         69.85245       53.70483       77.67461
H         69.51391       53.49718       79.42234
H         71.89612       52.68032       79.75338
H         72.21648       52.92441       77.99827
N         68.91451       56.63195       79.50529
C         67.97513       57.71305       79.21955
C         68.72431       58.98700       78.88623
O         68.51483       59.53043       77.81009
C         67.01073       57.97429       80.40147
C         66.19919       56.75955       80.88532
C         65.41602       56.09226       79.79264
O         65.99047       55.49542       78.89690
O         64.07376       56.11396       79.81677
H         68.84647       56.15429       80.40515
H         67.36634       57.43474       78.33188
H         66.29340       58.76468       80.08483
H         67.57642       58.36095       81.27668
H         65.50280       57.13085       81.66683
H         66.85251       56.00193       81.36451
N         69.65133       59.48870       79.74834
C         70.44751       60.66453       79.46385
H         71.52067       60.37988       79.44435
H         70.19373       61.12286       78.48461
H         70.28691       61.41989       80.25949
H         69.82845       58.99814       80.63778
Ca        61.66774       54.80638       79.01716
O         60.58344       53.21975       76.74305
H         60.49344       52.35682       76.26682
H         60.99562       53.82997       76.08098
O         63.72908       53.59812       76.91697
H         63.65036       52.76212       77.44125
H         64.34042       54.16496       77.44869

Ca 1.0



