%chk=apoCaM-CA-Ng.loop1.water3.frame721.chk
%nprocshared=20
%mem=10GB
%nosave
#b3lyp/svp scf=(tight,noincore,xqc) Test 
#IOP(5/87=12) Density=Current Pop=(MK,readradii) iop(6/33=2) iop(6/42=6)

apoCaM-CA-Ng.loop1.water3.frame721 

   0  1 
C         74.56639      107.00728       16.69753
C         75.87105      107.73418       16.54240
O         75.90945      108.93610       16.76055
H         73.81542      107.43783       16.00378
H         74.67365      105.92493       16.46898
H         74.20675      107.10858       17.74223
N         76.98860      107.05454       16.16886
C         78.30125      107.67298       15.99013
C         78.77313      107.51654       14.54765
O         78.09855      106.84701       13.77599
C         79.28738      107.11580       17.04371
C         79.48119      105.61669       17.03289
O         80.26061      105.11076       17.82462
O         78.87706      104.83974       16.11175
H         76.89110      106.04490       15.99809
H         78.22993      108.76834       16.16619
H         78.90841      107.39950       18.04949
H         80.27760      107.60295       16.90744
N         79.88241      108.17964       14.09147
C         80.27179      108.18977       12.68113
C         81.68332      107.65432       12.49835
O         82.62667      108.22238       13.02995
C         80.11136      109.61639       12.11741
C         80.28604      109.65502       10.58856
C         79.91491      111.01455        9.97000
C         80.87482      112.14832       10.35353
N         80.47858      113.39791        9.70276
H         80.42574      108.75855       14.75000
H         79.57316      107.54984       12.10000
H         80.81852      110.31019       12.61984
H         79.07427      109.94883       12.34407
H         79.59472      108.90580       10.14376
H         81.32405      109.37263       10.31454
H         78.87545      111.27908       10.26258
H         79.93121      110.91307        8.86464
H         81.90657      111.88034       10.03341
H         80.87248      112.29879       11.45355
H         80.49631      113.28603        8.66260
H         79.51664      113.67242       10.00911
H         81.14788      114.15437        9.97202
N         81.87702      106.53163       11.75260
C         83.15895      105.87368       11.52531
C         83.40735      105.71366       10.03624
O         82.48641      105.33511        9.32539
C         83.12672      104.49770       12.22040
C         83.42167      104.69630       13.68007
O         82.46196      104.69665       14.61319
O         84.54742      105.02853       14.01459
H         81.04779      106.07742       11.34226
H         83.99362      106.45307       11.95924
H         83.92187      103.82415       11.83302
H         82.14704      104.00278       12.03985
N         84.63601      105.90462        9.46762
C         85.87325      106.12268       10.20126
C         86.17592      107.58637       10.43214
O         85.42205      108.26612       11.11265
H         84.73020      105.68705        8.46562
H         86.69753      105.67743        9.60295
H         85.87824      105.55219       11.15338
N         87.30306      108.12918        9.89099
C         87.73317      109.50635       10.08348
C         87.65712      110.21236        8.75160
O         88.26639      109.75272        7.79405
C         89.16831      109.51162       10.64839
C         89.70936      110.90408       10.82741
O         90.72137      111.24821       10.23719
O         89.08651      111.77566       11.64309
H         87.89909      107.53339        9.29494
H         87.07494      110.03261       10.81022
H         89.83912      108.94392        9.96514
H         89.17320      109.00098       11.63565
N         86.90635      111.34121        8.61143
C         86.74816      112.00320        7.33151
C         85.89637      111.20367        6.36072
O         85.79556      111.62035        5.21708
H         86.44057      111.75152        9.43566
H         87.75422      112.20281        6.90363
H         86.24079      112.98208        7.47778
N         85.18798      110.10165        6.75791
C         84.26835      109.37893        5.88178
C         84.50519      107.87481        5.93810
O         85.37856      107.41819        6.66087
C         82.80795      109.71709        6.28952
C         82.45535      109.26994        7.71073
O         82.58997      111.10012        6.18553
H         85.22092      109.80896        7.74380
H         84.39573      109.70141        4.82606
H         82.09294      109.19472        5.61607
H         82.50554      111.30466        5.21721
H         83.05417      109.81784        8.46791
H         81.38475      109.47932        7.88949
H         82.60951      108.17849        7.84167
N         83.69255      107.04111        5.22216
C         83.74033      105.58327        5.33000
C         84.99428      105.03449        4.64463
O         85.32273      103.87430        4.85600
C         82.41348      104.95315        4.76315
C         81.16491      105.56578        5.47707
C         82.39095      103.41570        4.90962
C         79.82129      105.09893        4.90839
H         82.97914      107.46699        4.61781
H         83.77686      105.33051        6.41091
H         82.35271      105.19881        3.67955
H         81.15610      106.66713        5.36585
H         81.19693      105.34344        6.56554
H         83.21828      102.93477        4.35743
H         82.44145      103.12519        5.98101
H         81.47478      102.98290        4.46320
H         78.99799      105.64629        5.41481
H         79.76795      105.31297        3.81955
H         79.65120      104.01892        5.08512
N         85.73318      105.80379        3.79274
C         86.89027      105.32488        3.04951
C         86.58429      105.42103        1.57014
O         86.23654      106.49755        1.10092
C         88.14969      106.14042        3.41629
C         89.37178      105.66753        2.61794
O         87.95165      107.51069        3.17326
H         85.44403      106.77590        3.61033
H         87.11248      104.26393        3.30397
H         88.37833      105.97024        4.49556
H         87.61614      107.91156        4.01765
H         90.27206      106.23600        2.92906
H         89.55366      104.58515        2.79029
H         89.22085      105.83196        1.52857
N         86.68540      104.31931        0.77794
C         86.37378      104.32317       -0.64578
C         86.35310      102.88442       -1.14323
O         85.30590      102.43409       -1.58533
C         87.33989      105.24420       -1.45884
C         86.86801      105.40326       -2.90990
O         88.65435      104.75150       -1.42386
H         86.95900      103.42818        1.22322
H         85.34380      104.73240       -0.75891
H         87.33209      106.26087       -1.01184
H         89.24018      105.44397       -1.82901
H         85.84684      105.84178       -2.92729
H         87.54410      106.09750       -3.45438
H         86.85713      104.42784       -3.43768
N         87.46638      102.09625       -1.06524
C         87.49547      100.69672       -1.46902
C         88.03885       99.85531       -0.32736
O         89.08374      100.20789        0.20537
C         88.38161      100.54980       -2.71809
C         88.16022       99.18095       -3.38021
C         88.95072       99.04725       -4.68389
C         88.53652       97.77224       -5.43149
N         89.27153       97.63722       -6.68736
H         88.34288      102.50220       -0.70733
H         86.47587      100.35458       -1.75164
H         89.45314      100.72322       -2.47173
H         88.06791      101.32187       -3.45529
H         87.07666       99.09724       -3.62080
H         88.43352       98.35419       -2.68856
H         90.03935       99.03189       -4.45777
H         88.73282       99.91892       -5.33927
H         87.44641       97.82234       -5.65573
H         88.72134       96.87918       -4.79458
H         88.93262       96.78546       -7.19032
H         89.10678       98.47379       -7.29359
H         90.29379       97.53547       -6.49334
N         87.42719       98.70283        0.07572
C         87.98410       97.89822        1.15895
C         87.77884       98.58786        2.50490
O         88.78121       98.88999        3.13670
C         87.50607       96.42865        1.14828
C         87.93381       95.70403       -0.13932
C         87.70043       94.22389       -0.02627
O         86.46069       93.74236        0.18254
O         88.64027       93.44914       -0.11683
H         86.59772       98.36682       -0.43654
H         89.08367       97.81072        0.99264
H         86.41435       96.32337        1.26757
H         88.00222       95.92128        2.00641
H         89.01881       95.87275       -0.31835
H         87.37036       96.10487       -1.00868
N         86.56147       98.91247        3.03555
C         85.27801       98.65157        2.41937
H         84.46957       99.07112        3.05548
H         85.21378       99.13477        1.42430
H         85.08629       97.56686        2.34736
H         86.54681       99.40196        3.94425
Ca        80.29257      104.22441       14.51686
O         79.34685      103.82310       11.50729
H         79.29532      104.53053       10.81668
H         79.89927      103.11313       11.09358
O         78.41627      101.73719       16.06800
H         77.42880      101.78582       16.01385
H         78.63209      102.06882       16.97572
O         80.51036      101.31201       13.65915
H         79.70784      100.75206       13.50817
H         81.14338      101.03855       12.94884

Ca 1.0



