%chk=apoCaM-CA-Ng.loop2.water6.frame199.chk
%nprocshared=20
%mem=10GB
%nosave
#b3lyp/svp scf=(tight,noincore,xqc) Test 
#IOP(5/87=12) Density=Current Pop=(MK,readradii) iop(6/33=2) iop(6/42=6)

apoCaM-CA-Ng.loop2.water6.frame199 

   -2  1 
C         16.41403       24.84009       40.36815
C         17.40439       24.48443       41.43683
O         17.68329       23.30958       41.62646
H         15.55459       25.37969       40.81807
H         16.90124       25.49298       39.61359
H         16.03770       23.92683       39.85913
N         17.99208       25.46733       42.17373
C         18.97841       25.19641       43.21260
C         18.36093       24.39321       44.34182
O         17.43474       24.87741       44.97853
C         19.54605       26.52180       43.76671
C         20.58205       26.29474       44.83467
O         20.38517       26.77726       46.07675
O         21.60256       25.67407       44.58313
H         17.74099       26.44658       41.96456
H         19.82226       24.63260       42.75499
H         18.71718       27.13285       44.18821
H         20.01218       27.09829       42.93875
N         18.85205       23.16087       44.65624
C         18.37816       22.37620       45.78771
C         17.72267       21.07608       45.36298
O         17.29183       20.34964       46.24896
C         19.56255       22.09096       46.71749
H         19.61924       22.76989       44.08715
H         17.61758       22.94220       46.36883
H         20.01720       23.04571       47.05694
H         19.23046       21.52585       47.61476
H         20.33659       21.49437       46.18724
N         17.58194       20.71186       44.05179
C         16.93567       19.46694       43.65454
C         15.67802       19.76714       42.85874
O         15.48086       19.21472       41.78408
C         17.93908       18.58674       42.88236
C         19.14719       18.27549       43.72282
O         20.25701       18.63210       43.36024
O         19.01005       17.60382       44.88214
H         17.93074       21.32441       43.30217
H         16.59764       18.89794       44.54740
H         18.25722       19.11827       41.95712
H         17.45930       17.62838       42.58933
N         14.76650       20.65341       43.34979
C         13.50221       20.93121       42.69674
C         12.50817       19.85021       43.04646
O         12.25844       19.65962       44.22756
H         14.97904       21.16492       44.21967
H         13.65708       21.06675       41.60453
H         13.09611       21.88681       43.08740
N         11.92189       19.08514       42.08416
C         11.00055       17.98131       42.38561
C         10.97862       16.95085       41.26075
O         11.63536       17.13683       40.24837
C          9.55932       18.49333       42.64923
C          9.40708       19.27295       43.92962
N          8.90229       20.52697       43.92483
O          9.70745       18.74818       44.99190
H         12.21141       19.25552       41.11045
H         11.38209       17.41850       43.26655
H          8.87099       17.63016       42.75312
H          9.21659       19.08883       41.77418
H          8.60818       20.97309       43.04555
H          8.78272       21.04476       44.80799
N         10.27654       15.78897       41.40615
C         10.25758       14.74511       40.39453
C          9.51679       15.18488       39.15317
O          8.32676       15.44895       39.24572
H          9.77529       15.60955       42.28930
H          9.73323       13.85054       40.79546
H         11.30273       14.44633       40.16486
N         10.16548       15.29623       37.95713
C          9.50354       15.71348       36.71782
C          9.86233       17.14585       36.34402
O          9.33165       17.64331       35.35767
C          9.81788       14.72904       35.56094
C         11.28952       14.74634       35.10616
O          9.41439       13.42442       35.89533
H         11.18113       15.12506       37.93732
H          8.40126       15.70966       36.86539
H          9.21663       15.04267       34.67931
H         10.05224       13.07138       36.56959
H         11.97429       14.42926       35.91860
H         11.42276       14.05490       34.24799
H         11.58048       15.76349       34.77006
N         10.70971       17.88590       37.10910
C         11.01278       19.29342       36.89049
C         10.42563       20.09464       38.04178
O          9.83631       19.49461       38.93589
C         12.55450       19.50399       36.73273
C         13.34772       19.10694       38.01124
C         13.05494       18.73738       35.49539
C         14.83958       19.43908       37.94359
H         11.12652       17.45631       37.93981
H         10.51754       19.66334       35.96551
H         12.72949       20.58496       36.54531
H         13.25116       18.02055       38.21557
H         12.93635       19.66665       38.87636
H         14.12007       18.95957       35.28584
H         12.94230       17.64198       35.63809
H         12.47683       19.04293       34.59780
H         14.98572       20.52515       37.76606
H         15.31903       19.17085       38.90898
H         15.34990       18.85949       37.14837
N         10.55193       21.45043       38.10482
C         10.04666       22.22090       39.23330
C          9.10275       23.33324       38.78594
O          9.07008       24.36994       39.42651
C         11.26435       22.69745       40.05212
C         10.90463       23.38298       41.33749
O         11.31227       24.50772       41.56441
O         10.15582       22.75315       42.25806
H         11.07090       21.94798       37.36441
H          9.44645       21.57104       39.90739
H         11.90430       23.35854       39.42766
H         11.85707       21.79830       40.32034
N          8.22977       23.15141       37.75004
C          7.18611       24.12155       37.40916
C          7.75981       25.50090       37.07763
O          8.48612       25.60561       36.10042
C          6.34893       23.61346       36.21360
C          5.21229       24.55420       35.88719
C          3.97381       24.42166       36.53563
C          5.38630       25.58165       34.94212
C          2.92677       25.30106       36.24112
C          4.33998       26.46305       34.65671
C          3.11043       26.32210       35.30446
H          8.27280       22.26703       37.22134
H          6.50367       24.17976       38.27936
H          5.93554       22.60603       36.43959
H          7.00176       23.49014       35.32088
H          3.81965       23.63759       37.26624
H          6.33349       25.70672       34.43280
H          1.97312       25.19252       36.74084
H          4.48317       27.25599       33.93379
H          2.30059       27.00440       35.08081
N          7.44230       26.61999       37.80740
C          7.86437       27.97168       37.46502
C          9.32936       28.27059       37.76023
O          9.72882       29.39315       37.48277
C          6.91799       28.85553       38.28698
C          6.73116       28.02689       39.53576
C          6.54652       26.63232       38.94517
H          7.67999       28.18716       36.38823
H          7.25069       29.90495       38.43883
H          5.92789       28.88050       37.77459
H          7.69297       28.05258       40.09836
H          5.91290       28.35052       40.21269
H          6.80299       25.87779       39.70784
H          5.50955       26.46695       38.57765
N         10.20107       27.33730       38.25219
C         11.63599       27.58965       38.35879
C         12.40090       26.82529       37.28194
O         13.59452       27.05733       37.14321
C         12.21170       27.20675       39.73840
C         11.52503       27.86085       40.94941
C         12.37953       27.66731       42.18199
O         13.50528       28.13947       42.19967
O         11.95089       27.00229       43.27422
H          9.86476       26.39569       38.46904
H         11.84003       28.66904       38.18651
H         13.28066       27.51627       39.72319
H         12.18190       26.10503       39.86619
H         10.50960       27.42783       41.08541
H         11.42547       28.95437       40.78324
N         11.79705       25.89939       36.48276
C         12.50153       25.18790       35.44223
H         13.34900       24.61799       35.87611
H         11.80989       24.47367       34.94418
H         12.87402       25.90679       34.68285
H         10.80817       25.66750       36.60653
Ca         9.97581       25.98918       43.64725
O          7.39643       23.53037       44.33811
H          6.93776       22.91624       43.71146
H          6.82037       23.53834       45.14334
O          7.42918       26.87152       44.92340
H          7.17340       27.45284       44.16383
H          6.61358       26.34729       45.12292
O         10.94517       22.94458       45.27892
H         10.58555       22.35400       45.98707
H         11.59386       22.37689       44.79501
O          7.95168       25.69251       41.83537
H          7.97387       24.70621       41.75872
H          7.03956       25.89656       42.15906
O          8.99822       24.82934       46.73221
H          9.68251       25.36032       47.21125
H          8.40616       24.48417       47.44665
O         12.30728       25.77888       46.02664
H         12.93490       26.50096       45.77186
H         12.25535       25.83374       47.01362

Ca 1.0



