%chk=apoCaM-CA-Ng.loop2.water2.frame981.chk
%nprocshared=20
%mem=10GB
%nosave
#b3lyp/svp scf=(tight,noincore,xqc) Test 
#IOP(5/87=12) Density=Current Pop=(MK,readradii) iop(6/33=2) iop(6/42=6)

apoCaM-CA-Ng.loop2.water2.frame981 

   -2  1 
C         36.26267      108.38583       57.42761
C         35.23899      107.95384       58.43427
O         34.19125      107.45566       58.04709
H         37.20891      107.83068       57.59931
H         35.91136      108.17980       56.39390
H         36.45344      109.47424       57.53165
N         35.48443      108.11495       59.76452
C         34.54505      107.70113       60.80081
C         34.30573      106.20473       60.70579
O         33.16110      105.80085       60.56063
C         35.07589      108.09755       62.19418
C         34.08390      107.78675       63.28101
O         34.41687      106.94822       64.28022
O         32.97732      108.30312       63.27009
H         36.37825      108.54936       60.04425
H         33.58535      108.24543       60.64456
H         35.26892      109.19260       62.21192
H         36.03558      107.57653       62.40044
N         35.35591      105.33208       60.73957
C         35.21983      103.88720       60.55557
C         36.59901      103.22328       60.62408
O         37.45873      103.66066       59.87023
C         34.61977      103.56245       59.17572
H         36.30009      105.72554       60.87589
H         34.51589      103.51089       61.31312
H         34.53698      102.46062       59.05492
H         33.59963      103.97646       59.05706
H         35.25760      103.96698       58.36108
N         36.93539      102.15985       61.42018
C         36.06269      101.42948       62.33851
C         36.65455      101.39994       63.74131
O         37.76969      101.86093       63.94231
C         35.79875      100.00168       61.79487
C         37.02020       99.11719       61.80564
O         37.00672       98.07664       62.43595
O         38.13255       99.47300       61.14036
H         37.90367      101.81981       61.32961
H         35.08053      101.91469       62.41742
H         35.40631      100.07832       60.75787
H         35.01004       99.52002       62.41448
N         35.92714      100.89760       64.77558
C         36.38754      100.91132       66.15406
C         35.84559       99.71395       66.89727
O         34.97531       99.91628       67.73247
H         34.95300      100.61019       64.59293
H         35.94900      101.81981       66.62405
H         37.49047      100.99993       66.24645
N         36.23453       98.42731       66.66572
C         37.32354       97.99619       65.79322
C         38.66128       98.38596       66.39097
O         38.91226       98.05400       67.54174
C         37.25944       96.45903       65.63290
C         38.38877       95.88602       64.80794
N         39.22342       94.96403       65.34045
O         38.54624       96.24237       63.65107
H         35.71656       97.69522       67.17839
H         37.19850       98.44192       64.79061
H         36.29636       96.19284       65.14505
H         37.27130       95.98814       66.63987
H         39.10972       94.64296       66.31238
H         39.98276       94.55959       64.77684
N         39.58596       99.05639       65.64667
C         40.87605       99.47441       66.17008
C         42.06036       98.85637       65.45473
O         43.16814       99.25596       65.78516
H         39.36583       99.29633       64.66786
H         40.98032       99.23852       67.25110
H         40.93906      100.57829       66.06231
N         41.94056       97.88939       64.49117
C         43.10175       97.34397       63.78250
C         42.96876       97.60506       62.26350
O         42.45934       98.88803       62.05816
C         43.26576       95.82923       64.06646
C         43.49909       95.55294       65.55230
O         42.12983       95.12366       63.64312
H         41.00868       97.53103       64.23770
H         44.02994       97.85542       64.12174
H         44.16699       95.43132       63.54615
H         42.25959       94.91368       62.68264
H         42.63377       95.89066       66.16021
H         43.63910       94.46230       65.71292
H         44.41535       96.07720       65.89916
N         44.28304       97.52761       61.60581
C         44.21471       97.29729       60.15230
C         43.91529       95.83384       59.87490
O         44.61145       94.97801       60.40635
C         45.56472       97.71063       59.49119
C         45.48487       97.53208       57.94745
C         45.90800       99.16862       59.86010
C         46.78762       97.84856       57.21057
H         44.94060       96.84825       62.05170
H         43.43172       97.94687       59.70353
H         46.37416       97.05808       59.88948
H         44.67486       98.17268       57.53411
H         45.24006       96.47485       57.71180
H         45.97822       99.29065       60.96116
H         46.89684       99.46410       59.45707
H         45.13305       99.86400       59.47284
H         47.61124       97.20858       57.59134
H         46.65259       97.64647       56.12676
H         47.06673       98.91606       57.31418
N         42.94032       95.47192       58.99370
C         42.67561       94.07691       58.67356
C         41.95124       93.93832       57.34281
O         40.89950       93.31865       57.27446
C         41.96804       93.36031       59.85031
C         40.63014       93.96405       60.18732
O         39.61763       93.28598       60.11691
O         40.54297       95.24653       60.58929
H         42.43405       96.20728       58.48065
H         43.64949       93.56522       58.50148
H         42.60632       93.40332       60.75679
H         41.84089       92.28594       59.59057
N         42.54186       94.43276       56.21429
C         42.06605       94.15000       54.86530
C         41.81789       95.43581       54.07259
O         42.73117       96.24550       54.00916
C         43.16797       93.34760       54.13691
C         42.70754       92.88624       52.77685
C         43.20657       93.48802       51.60977
C         41.76290       91.85192       52.66849
C         42.75479       93.06891       50.35483
C         41.32312       91.42785       51.41196
C         41.81546       92.03865       50.25588
H         43.42885       94.95073       56.31097
H         41.16201       93.51688       54.91414
H         43.47368       92.45579       54.72686
H         44.06895       93.99505       54.04452
H         43.92906       94.29232       51.67123
H         41.37185       91.37260       53.55770
H         43.13146       93.54455       49.45883
H         40.59860       90.62757       51.33546
H         41.46882       91.71366       49.28375
N         40.66978       95.66152       53.34751
C         40.54323       96.74903       52.37710
C         40.62530       98.16535       52.91160
O         40.63332       99.08355       52.10192
C         39.16035       96.52497       51.75682
C         39.03941       95.02071       51.81157
C         39.56997       94.72640       53.21006
H         41.34688       96.59168       51.62205
H         38.37885       96.92946       52.44264
H         39.02451       96.98210       50.75351
H         38.02376       94.61892       51.61192
H         39.75005       94.59548       51.06508
H         38.80991       94.95799       53.98835
H         39.85134       93.65814       53.23832
N         40.63508       98.43693       54.24537
C         40.64025       99.80297       54.76435
C         41.92627      100.56982       54.47283
O         41.96356      101.75653       54.76964
C         40.34949       99.80672       56.27710
C         41.44039       99.11897       57.11261
C         41.02189       99.09141       58.54420
O         40.83027       98.02183       59.09651
O         40.83087      100.24168       59.21864
H         40.54624       97.65023       54.90208
H         39.79804      100.34458       54.27741
H         39.37944       99.28528       56.44068
H         40.23010      100.85658       56.62653
H         42.40826       99.65644       57.02401
H         41.59464       98.07465       56.77077
N         43.02355       99.97922       53.91951
C         44.23754      100.72266       53.65999
H         45.00497      100.05401       53.21596
H         44.03082      101.55026       52.94829
H         44.63656      101.14093       54.60887
H         43.01916       98.97814       53.68364
Ca        40.21174       98.70554       61.62794
O         37.55757       96.00391       59.95060
H         36.77891       95.72955       59.40405
H         37.60373       95.32777       60.67260
O         40.90302      101.44902       62.91189
H         41.28779      101.42404       61.99999
H         39.98208      101.10620       62.79790

Ca 1.0



