%chk=apoCaM-CA-Ng.loop1.water4.frame41.chk
%nprocshared=20
%mem=10GB
%nosave
#b3lyp/svp scf=(tight,noincore,xqc) Test 
#IOP(5/87=12) Density=Current Pop=(MK,readradii) iop(6/33=2) iop(6/42=6)

apoCaM-CA-Ng.loop1.water4.frame41 

   0  1 
C         69.64147       46.29167       59.81185
C         69.03314       45.95625       61.14094
O         69.20486       46.71333       62.08502
H         70.35572       45.49269       59.52195
H         68.84668       46.36911       59.04076
H         70.18821       47.25780       59.86063
N         68.29093       44.82222       61.28448
C         67.66135       44.43957       62.54761
C         68.66196       43.97106       63.61270
O         68.22446       43.64754       64.70782
C         66.56792       43.37282       62.31476
C         67.08561       42.01079       61.94936
O         67.73941       41.83646       60.93372
O         66.79362       40.96342       62.74373
H         68.12469       44.25183       60.44189
H         67.11594       45.33126       62.93154
H         65.86923       43.72693       61.52577
H         65.98172       43.27171       63.25160
N         70.00814       43.92598       63.37784
C         71.00380       43.50866       64.36128
C         71.78360       44.74218       64.80054
O         72.21378       45.46889       63.91472
C         71.99443       42.50176       63.72847
C         71.39174       41.22875       63.10787
C         70.53640       40.40188       64.07708
C         70.22645       38.98698       63.54385
N         69.59388       38.98969       62.22421
H         70.37498       44.23946       62.46986
H         70.53377       43.01239       65.22538
H         72.72157       42.19498       64.51105
H         72.56940       43.00704       62.92055
H         72.25118       40.61091       62.76550
H         70.78064       41.49607       62.21858
H         69.59139       40.94971       64.28154
H         71.07923       40.27356       65.03723
H         69.55461       38.48166       64.27276
H         71.16946       38.39919       63.48558
H         70.26283       39.33129       61.49730
H         69.31856       38.01171       61.97691
H         68.74131       39.58576       62.23024
N         72.07392       45.08296       66.09648
C         71.80700       44.33573       67.32523
C         72.42455       42.94290       67.27867
O         71.70620       41.96229       67.41266
C         70.31733       44.37320       67.72971
C         69.81853       45.78053       67.95043
O         68.56422       45.96844       68.38128
O         70.52412       46.75363       67.73696
H         72.62332       45.94805       66.22601
H         72.32364       44.85598       68.16340
H         70.20365       43.82612       68.69123
H         69.66642       43.87926       66.98587
N         73.76832       42.75874       67.10852
C         74.70528       43.85989       66.95208
C         76.09705       43.37674       66.62769
O         76.22543       42.64179       65.65749
H         74.12995       41.79352       67.08161
H         74.67103       44.50196       67.85344
H         74.41486       44.46066       66.07110
N         77.21830       43.77489       67.29571
C         77.25264       44.71504       68.41687
C         76.89604       44.06991       69.75528
O         76.95847       44.77247       70.75844
C         78.64939       45.38462       68.52084
C         79.76606       44.45920       68.93889
O         80.09072       43.51052       68.24404
O         80.43551       44.69774       70.08269
H         78.11248       43.45884       66.89561
H         76.56393       45.56042       68.19955
H         78.58605       46.20243       69.27350
H         78.90631       45.85818       67.54837
N         76.55572       42.75417       69.88120
C         76.38388       42.14660       71.19436
C         75.94313       40.70652       71.10455
O         76.61396       39.91719       70.45128
H         76.45251       42.16617       69.04040
H         75.64015       42.72727       71.78165
H         77.35841       42.18191       71.72705
N         74.79902       40.29907       71.72695
C         74.25102       38.95522       71.58867
C         73.20441       38.98210       70.49419
O         72.85579       40.05961       70.02269
C         73.65737       38.46414       72.94049
C         74.71684       38.36799       74.03787
O         73.07013       37.19423       72.79812
H         74.23195       41.00173       72.22810
H         75.04466       38.25111       71.25095
H         72.89266       39.20807       73.27630
H         72.09213       37.29400       72.94426
H         74.24032       38.03042       74.98427
H         75.49642       37.62925       73.75403
H         75.19294       39.35331       74.21919
N         72.69111       37.82261       70.00289
C         71.71506       37.77618       68.92815
C         70.45809       37.13191       69.46115
O         70.52477       35.98919       69.89947
C         72.26772       36.96471       67.71872
C         73.65718       37.44538       67.22690
C         71.25216       36.95709       66.56319
C         73.71295       38.89438       66.74319
H         73.01784       36.92349       70.39017
H         71.47250       38.80150       68.57110
H         72.41213       35.90935       68.04357
H         73.98489       36.78617       66.39307
H         74.39533       37.32516       68.04873
H         70.29594       36.51762       66.89891
H         71.04207       37.98595       66.21012
H         71.62666       36.34584       65.71555
H         73.45199       39.58712       67.56391
H         74.74612       39.12828       66.41073
H         73.03224       39.06244       65.88612
N         69.26672       37.79079       69.42461
C         68.01782       37.17615       69.85597
C         67.08266       36.94095       68.67654
O         66.11454       36.21818       68.85829
C         67.33844       38.04474       70.94132
C         68.25436       38.26074       72.15126
O         66.15271       37.42549       71.37070
H         69.24052       38.75338       69.05122
H         68.22121       36.17029       70.28514
H         67.10528       39.03757       70.48558
H         65.55859       38.14339       71.71413
H         69.18888       38.78103       71.85234
H         67.73709       38.89222       72.90468
H         68.51418       37.28720       72.61815
N         67.29538       37.51218       67.44657
C         66.44053       37.32848       66.27311
C         65.00557       37.76285       66.54819
O         64.65829       38.03680       67.68977
C         66.47353       35.85312       65.77828
C         67.89704       35.33410       65.57863
O         65.79209       35.74273       64.55381
H         68.09998       38.13623       67.30634
H         66.85076       37.97641       65.46395
H         65.98912       35.20895       66.54981
H         65.22137       34.93173       64.59835
H         67.86440       34.28801       65.20704
H         68.44590       35.96121       64.84403
H         68.43723       35.32516       66.54541
N         64.10194       37.84439       65.53392
C         62.67686       38.03776       65.77439
C         62.23054       39.46579       65.56268
O         61.09386       39.76101       65.90429
C         61.85594       36.98284       64.99979
C         61.93685       37.09861       63.46415
C         61.23784       35.90393       62.80075
C         61.31863       35.98082       61.26998
N         60.72232       34.79333       60.65741
H         64.43937       37.74474       64.56766
H         62.46919       37.85055       66.85151
H         60.78850       37.04633       65.30471
H         62.23876       35.98391       65.30632
H         62.99075       37.08617       63.12299
H         61.47082       38.05353       63.13667
H         60.17184       35.86583       63.11345
H         61.74173       34.96982       63.13549
H         62.38341       36.05217       60.95348
H         60.78508       36.89047       60.91566
H         59.71933       34.70423       60.93954
H         60.77725       34.87846       59.61679
H         61.24772       33.93753       60.95167
N         63.06956       40.42192       65.06782
C         62.71599       41.83228       65.04051
C         62.49867       42.27112       63.61429
O         63.40465       42.15677       62.79987
C         63.82794       42.64443       65.72396
C         63.44504       44.12218       65.89299
C         64.58038       44.87474       66.50327
O         65.03164       44.52912       67.58481
O         65.13421       45.91899       65.86095
H         64.00497       40.15927       64.72345
H         61.78135       42.00487       65.61776
H         64.76758       42.55306       65.13592
H         64.01914       42.21482       66.73338
H         62.55859       44.20123       66.55850
H         63.20155       44.57789       64.91047
N         61.29497       42.78321       63.24174
C         61.02201       43.19790       61.88618
H         59.98335       43.58467       61.81519
H         61.72664       44.00168       61.58611
H         61.12760       42.33018       61.20133
H         60.54283       42.88079       63.94086
Ca        67.03644       46.51547       66.85059
O         66.47394       48.29346       63.77429
H         65.83158       48.21368       63.02503
H         67.28591       48.68386       63.36352
O         65.87806       48.12762       69.14352
H         66.74535       47.89913       69.56313
H         65.45087       48.75258       69.78111
O         68.55791       49.28474       67.65058
H         68.95521       48.84654       68.44441
H         69.11121       50.09386       67.51302
O         69.41782       47.60428       65.02069
H         69.05351       46.72381       64.75244
H         70.39990       47.49046       64.97446

Ca 1.0



