%chk=apoCaM-CA-Ng.loop3.water4.frame66.chk
%nprocshared=20
%mem=10GB
%nosave
#b3lyp/svp scf=(tight,noincore,xqc) Test 
#IOP(5/87=12) Density=Current Pop=(MK,readradii) iop(6/33=2) iop(6/42=6)

apoCaM-CA-Ng.loop3.water4.frame66 

   0  1 
C         34.76384       53.62799       52.80438
C         33.58290       53.64858       51.87994
O         33.66335       53.06567       50.81038
H         35.63484       54.08787       52.29221
H         34.56129       54.20302       53.73228
H         35.01459       52.58390       53.07979
N         32.45504       54.33386       52.21600
C         31.29383       54.48359       51.34643
C         31.71614       55.15610       50.04880
O         31.43036       54.66362       48.96568
C         30.55028       53.14567       51.11923
C         30.05842       52.49845       52.39059
O         30.28232       53.05612       53.59685
O         29.44009       51.44800       52.32644
H         32.42971       54.82909       53.12074
H         30.57821       55.17228       51.85186
H         31.20916       52.43236       50.58570
H         29.66203       53.33814       50.47808
N         32.40481       56.32696       50.11326
C         32.78481       57.11277       48.94346
C         34.05769       56.60568       48.26458
O         34.41893       57.16965       47.24026
C         32.97396       58.58146       49.37632
C         31.67016       59.17317       49.94769
C         31.91862       60.55480       50.55489
C         30.62003       61.16281       51.10004
N         30.88625       62.43509       51.76950
H         32.60423       56.71001       51.05102
H         31.95386       57.08691       48.20298
H         33.29005       59.20597       48.51210
H         33.77639       58.61771       50.14659
H         31.26515       58.52664       50.75554
H         30.90982       59.23025       49.13772
H         32.35053       61.23472       49.78945
H         32.64566       60.44375       51.38976
H         30.14944       60.46440       51.82816
H         29.90846       61.32399       50.25960
H         31.50338       62.27581       52.59940
H         31.34831       63.10244       51.11027
H         29.98292       62.84727       52.09641
N         34.80616       55.57807       48.76906
C         36.04630       55.10736       48.13970
C         35.76598       54.54799       46.74379
O         34.60718       54.35825       46.39797
C         36.72496       54.08309       49.09225
C         38.09211       53.59498       48.69379
O         38.23710       52.85816       47.73483
O         39.16031       53.89793       49.45615
H         34.51116       55.14308       49.65178
H         36.72093       55.98710       48.03882
H         36.06207       53.20407       49.24718
H         36.84377       54.59351       50.07346
N         36.77817       54.33272       45.85210
C         36.53741       53.87538       44.49106
C         36.01629       52.45266       44.38771
O         35.59993       52.08751       43.29742
H         37.74206       54.58318       46.11217
H         37.47084       53.94070       43.89243
H         35.79849       54.56615       44.02815
N         36.00921       51.58986       45.44820
C         35.41820       50.25247       45.39401
C         34.23703       50.12827       46.35414
O         33.57716       49.09875       46.34222
C         36.50207       49.17193       45.60399
C         37.22174       49.23056       46.93081
N         36.58287       48.96675       48.09439
O         38.41595       49.48467       46.94747
H         36.42421       51.88909       46.33960
H         34.99524       50.06889       44.38205
H         37.25034       49.30373       44.78990
H         36.06032       48.15935       45.48270
H         35.58670       48.71358       48.11327
H         37.09721       48.98605       48.98637
N         33.87882       51.15704       47.17576
C         32.69542       51.17081       48.00736
C         32.71738       50.16072       49.11968
O         31.75803       49.41202       49.24572
H         34.42752       52.02193       47.19039
H         31.79045       51.04337       47.37456
H         32.62532       52.17029       48.48711
N         33.74521       50.12395       50.01526
C         33.65474       49.35082       51.25059
C         35.03141       49.10677       51.84191
O         35.86249       50.00350       51.83481
C         32.73806       50.11022       52.22940
C         32.27364       49.29731       53.40664
C         31.47446       48.16100       53.19601
C         32.57797       49.69079       54.71911
C         30.98505       47.43055       54.27996
C         32.08766       48.95656       55.80403
C         31.28566       47.82544       55.58670
O         30.79209       47.11723       56.62200
H         34.55511       50.74479       49.86173
H         33.20690       48.36148       51.01129
H         31.81538       50.41268       51.69800
H         33.25020       51.03484       52.55926
H         31.21337       47.85083       52.19177
H         33.18285       50.56994       54.90405
H         30.36138       46.56342       54.10224
H         32.32266       49.27314       56.81212
H         30.96155       47.36434       57.54197
N         35.33341       47.89123       52.37576
C         36.68149       47.48494       52.76936
C         36.89611       46.06147       52.27753
O         37.81019       45.83929       51.49621
C         36.94666       47.61922       54.30112
C         36.70901       49.08320       54.76275
C         38.40566       47.20020       54.60921
C         36.97961       49.33340       56.24937
H         34.57240       47.19907       52.43629
H         37.42798       48.14486       52.26838
H         36.25538       46.94749       54.85591
H         35.64958       49.35314       54.57167
H         37.35814       49.77153       54.17715
H         38.62266       46.17565       54.26054
H         39.12492       47.88269       54.10718
H         38.60713       47.19796       55.69868
H         38.05003       49.18145       56.49886
H         36.74035       50.39015       56.49255
H         36.35232       48.66838       56.87809
N         36.05584       45.05126       52.66450
C         36.20584       43.68215       52.18261
C         37.37699       42.97909       52.84335
O         37.81723       41.96776       52.31495
C         34.92487       42.86800       52.41460
O         33.85220       43.48496       51.75682
H         35.25784       45.27160       53.27917
H         36.37315       43.72517       51.08227
H         34.71330       42.80873       53.50610
H         35.06680       41.84224       52.00390
H         33.06497       42.89830       51.90060
N         37.92489       43.44584       54.00674
C         39.08619       42.85764       54.66174
C         40.31995       42.93001       53.77506
O         41.24686       42.15895       53.97989
C         38.78665       41.43350       55.15508
H         37.50971       44.26929       54.46212
H         39.31551       43.45534       55.57205
H         38.58180       40.73714       54.31800
H         39.65136       41.03967       55.73137
H         37.90629       41.45177       55.83238
N         40.42097       43.88647       52.80466
C         41.58263       44.04461       51.94473
C         42.21223       45.40656       52.15818
O         41.67458       46.21667       52.90053
C         41.14900       43.88000       50.48435
H         39.65128       44.55504       52.67140
H         42.34862       43.27385       52.17733
H         42.01579       43.97482       49.79746
H         40.69422       42.87755       50.33612
H         40.39584       44.65287       50.21491
N         43.39949       45.69849       51.55363
C         44.12579       46.95942       51.67354
C         44.25259       47.42306       53.12229
O         43.99554       48.58373       53.41215
C         43.55779       48.03819       50.71243
C         42.11851       48.48609       51.01946
C         41.70712       49.61902       50.13490
O         41.46158       50.71175       50.61977
O         41.57498       49.43859       48.80986
H         43.85744       44.95166       51.00889
H         45.16025       46.76065       51.31320
H         43.59961       47.65179       49.66953
H         44.22680       48.92557       50.76886
H         42.04326       48.83247       52.06878
H         41.39997       47.65484       50.87202
N         44.63231       46.55041       54.09548
C         44.72217       46.92014       55.49546
H         44.48801       47.99235       55.67070
H         43.99904       46.31452       56.08126
H         45.74808       46.72339       55.86629
H         44.83503       45.57132       53.84485
Ca        40.73139       51.16245       47.63443
O         41.34384       49.53183       45.27580
H         40.88487       48.73997       45.65354
H         42.30817       49.33341       45.38007
O         40.12638       52.65991       45.20229
H         39.90438       53.55225       45.56880
H         39.35175       52.42043       44.63483
O         38.63707       50.77570       50.29890
H         38.93731       51.01571       51.21101
H         37.66541       50.95685       50.30505
O         42.30057       53.55026       48.02017
H         43.20383       53.16302       47.89910
H         42.38512       54.14541       48.80631

Ca 1.0



