%chk=apoCaM-CA-Ng.loop3.water3.frame780.chk
%nprocshared=20
%mem=10GB
%nosave
#b3lyp/svp scf=(tight,noincore,xqc) Test 
#IOP(5/87=12) Density=Current Pop=(MK,readradii) iop(6/33=2) iop(6/42=6)

apoCaM-CA-Ng.loop3.water3.frame780 

   0  1 
C         92.23792      -10.55310      -17.85348
C         91.66936      -11.71952      -18.60026
O         92.43453      -12.60090      -18.96173
H         92.99488      -10.03945      -18.48066
H         91.44769       -9.82968      -17.56609
H         92.72695      -10.92555      -16.92716
N         90.33246      -11.80079      -18.86357
C         89.71373      -12.97031      -19.48046
C         89.15986      -12.60472      -20.85559
O         89.06086      -11.42258      -21.15752
C         88.63503      -13.48805      -18.48789
C         88.12346      -14.89233      -18.66567
O         87.20250      -15.36394      -17.80412
O         88.56902      -15.63553      -19.51900
H         89.72029      -11.01818      -18.58394
H         90.48026      -13.74715      -19.61896
H         87.78274      -12.77375      -18.48209
H         89.07256      -13.48383      -17.46763
N         88.80109      -13.56793      -21.75449
C         88.20516      -13.28253      -23.05738
C         86.75232      -13.74896      -23.11546
O         86.06454      -13.36085      -24.04909
C         89.03665      -13.93235      -24.18721
C         90.40153      -13.25105      -24.38008
C         91.20420      -13.92130      -25.50860
C         92.45393      -13.10213      -25.86687
N         93.21733      -13.74280      -26.93892
H         88.95006      -14.55318      -21.51280
H         88.15935      -12.18439      -23.22649
H         88.48576      -13.83366      -25.14829
H         89.16609      -15.01715      -23.97536
H         90.99738      -13.27543      -23.44145
H         90.20893      -12.19035      -24.65275
H         90.57327      -13.99549      -26.42119
H         91.49467      -14.94835      -25.19383
H         93.10399      -12.98158      -24.97271
H         92.13409      -12.09137      -26.20755
H         93.58524      -14.66641      -26.61485
H         92.61561      -13.87925      -27.78385
H         94.02380      -13.12966      -27.19906
N         86.21158      -14.56580      -22.16332
C         84.80148      -14.95001      -22.11569
C         84.18023      -14.70509      -20.73403
O         82.99701      -14.97525      -20.58048
C         84.63214      -16.41625      -22.56937
C         85.36503      -17.44003      -21.74515
O         86.10765      -17.07748      -20.68357
O         85.30985      -18.61497      -22.06705
H         86.82854      -14.95833      -21.44780
H         84.21869      -14.34227      -22.84337
H         85.00464      -16.49340      -23.61476
H         83.54973      -16.67119      -22.57895
N         84.88971      -14.16999      -19.69355
C         84.30802      -13.85469      -18.39627
C         83.90754      -15.04235      -17.52840
O         83.36160      -14.78253      -16.46565
H         85.86563      -13.88226      -19.83277
H         83.42257      -13.20285      -18.56132
H         85.04660      -13.26583      -17.80879
N         84.13576      -16.34689      -17.87243
C         83.69367      -17.48104      -17.05436
C         84.83539      -18.38804      -16.62706
O         85.56840      -18.87955      -17.47178
C         82.70739      -18.36864      -17.83645
C         81.37769      -17.70542      -18.07288
N         80.24929      -18.23501      -17.54063
O         81.31139      -16.69271      -18.75168
H         84.61339      -16.55661      -18.75725
H         83.16385      -17.13843      -16.13774
H         82.52546      -19.28769      -17.23370
H         83.15526      -18.68780      -18.80290
H         80.28411      -19.08960      -16.96391
H         79.33368      -17.79203      -17.70158
N         84.92129      -18.78532      -15.32495
C         85.75872      -19.88420      -14.87512
C         87.23020      -19.60997      -15.00019
O         87.70699      -18.65550      -14.40194
H         84.27138      -18.38216      -14.63282
H         85.47894      -20.80107      -15.43907
H         85.54471      -20.08201      -13.80232
N         88.02931      -20.45559      -15.71611
C         89.47934      -20.29572      -15.77956
C         89.86511      -19.00355      -16.47468
O         88.99520      -18.30102      -16.96904
C         90.14430      -21.49688      -16.49396
C         89.85469      -22.82134      -15.82310
C         90.20861      -23.04025      -14.47945
C         89.24330      -23.86063      -16.54552
C         89.94793      -24.27157      -13.87031
C         88.99047      -25.09349      -15.93607
C         89.33926      -25.30364      -14.59828
O         89.08820      -26.49837      -14.02569
H         87.59600      -21.26737      -16.18303
H         89.86361      -20.24940      -14.73747
H         91.24671      -21.36674      -16.49782
H         89.80528      -21.51881      -17.55258
H         90.68617      -22.26096      -13.90007
H         88.96837      -23.72179      -17.58366
H         90.22283      -24.42315      -12.83395
H         88.52462      -25.88760      -16.50602
H         89.31561      -26.68549      -13.10365
N         91.17555      -18.61593      -16.50548
C         91.66477      -17.36393      -17.07659
C         91.50090      -17.35342      -18.59625
O         90.44154      -17.70463      -19.09259
C         91.02507      -16.12310      -16.38053
C         91.68318      -14.79635      -16.83332
C         91.06641      -16.24144      -14.84441
C         93.16326      -14.62167      -16.46212
H         91.87446      -19.22010      -16.04788
H         92.75172      -17.32748      -16.85780
H         89.95421      -16.06414      -16.66770
H         91.12514      -13.94870      -16.38111
H         91.58686      -14.72187      -17.93037
H         92.10596      -16.34887      -14.47341
H         90.60295      -15.34514      -14.37951
H         90.48958      -17.12426      -14.49982
H         93.80299      -15.39538      -16.92751
H         93.52057      -13.63692      -16.82560
H         93.30682      -14.63946      -15.36358
N         92.52045      -16.93288      -19.39952
C         92.46449      -16.95736      -20.86084
C         93.65189      -17.69260      -21.47383
O         93.70122      -17.78328      -22.69316
C         92.40881      -15.52190      -21.40379
O         93.53943      -14.79784      -21.00185
H         93.36433      -16.54590      -18.95258
H         91.54272      -17.47323      -21.20523
H         91.49148      -15.04261      -21.01595
H         92.34582      -15.53722      -22.51510
H         93.39022      -13.86494      -21.30610
N         94.66317      -18.21391      -20.71544
C         95.84724      -18.82806      -21.30804
C         95.50051      -20.11525      -22.04692
O         94.45146      -20.67960      -21.76712
C         96.86136      -19.14433      -20.19775
H         94.62717      -18.13376      -19.69086
H         96.29682      -18.08177      -21.99128
H         96.42264      -19.86352      -19.47215
H         97.79233      -19.58433      -20.59638
H         97.12818      -18.21285      -19.65469
N         96.33038      -20.70135      -22.96343
C         97.52429      -20.08191      -23.53870
C         98.41093      -21.12847      -24.21423
O         97.88293      -21.94728      -24.95403
C         97.11592      -19.04903      -24.59830
H         96.03245      -21.61456      -23.34131
H         98.09222      -19.54933      -22.76201
H         96.55172      -19.53459      -25.42224
H         96.48114      -18.24846      -24.17340
H         98.02423      -18.56881      -25.02343
N         99.77524      -21.14067      -24.10136
C        100.54642      -20.12608      -23.38836
C        100.42770      -20.27003      -21.87410
O        100.79667      -19.34099      -21.17009
C        102.02512      -20.18171      -23.84186
C        102.85346      -18.96544      -23.39857
C        104.25455      -19.05787      -23.92971
O        105.05208      -20.07725      -23.55728
O        104.68073      -18.20608      -24.69330
H        100.28711      -21.85019      -24.65067
H        100.15009      -19.13771      -23.71094
H        102.04021      -20.18906      -24.95522
H        102.48972      -21.12745      -23.48369
H        102.91179      -18.89716      -22.29502
H        102.37010      -18.04178      -23.78883
N         99.93895      -21.40870      -21.29978
C         99.81768      -21.58980      -19.86661
H         98.76154      -21.81857      -19.61443
H        100.45575      -22.44079      -19.54842
H        100.12576      -20.68923      -19.29490
H         99.65708      -22.20436      -21.88938
Ca        87.43614      -18.51191      -19.57016
O         85.67478      -20.87820      -20.08192
H         86.31728      -20.78538      -20.82994
H         86.24382      -21.02824      -19.28560
O         89.67940      -20.39087      -20.08962
H         89.83801      -20.21946      -21.05164
H         88.92212      -21.02848      -20.07058
O         88.83605      -17.30551      -22.09098
H         88.12812      -17.69479      -22.66250
H         89.61545      -17.21236      -22.69316

Ca 1.0



