%chk=apoCaM-CA-Ng.loop1.water5.frame380.chk
%nprocshared=20
%mem=10GB
%nosave
#b3lyp/svp scf=(tight,noincore,xqc) Test 
#IOP(5/87=12) Density=Current Pop=(MK,readradii) iop(6/33=2) iop(6/42=6)

apoCaM-CA-Ng.loop1.water5.frame380 

   0  1 
C          7.42672      117.47684        8.95046
C          6.63331      116.35980        8.33712
O          6.99317      115.87276        7.27551
H          8.29323      117.74953        8.31245
H          6.77964      118.36825        9.08666
H          7.80689      117.15419        9.94425
N          5.54159      115.88154        8.99053
C          4.75990      114.73352        8.54265
C          3.80626      115.04665        7.37565
O          2.92053      114.24641        7.15734
C          3.95684      114.13598        9.73129
C          4.83530      113.65318       10.86173
O          4.85194      112.46833       11.15749
O          5.58342      114.51744       11.57318
H          5.31333      116.30743        9.90195
H          5.44278      113.90896        8.23923
H          3.39843      113.24748        9.36427
H          3.22208      114.87273       10.11868
N          3.87358      116.15402        6.58257
C          2.89271      116.40233        5.51378
C          3.54673      116.52497        4.14603
O          4.58677      117.16462        4.07545
C          2.09712      117.67190        5.84988
C          1.22224      117.43554        7.09182
C          0.23392      118.58285        7.30316
C         -0.70503      118.28111        8.47799
N         -1.72120      119.32131        8.61619
H          4.60411      116.86015        6.74413
H          2.15301      115.58902        5.44166
H          1.42695      117.90109        4.99755
H          2.77072      118.54493        5.99436
H          1.85914      117.29425        7.99293
H          0.62811      116.50834        6.93337
H         -0.37966      118.69269        6.38178
H          0.78360      119.53127        7.48596
H         -0.11615      118.19952        9.41866
H         -1.21966      117.31336        8.30022
H         -2.34281      119.08470        9.42291
H         -1.26954      120.24794        8.78835
H         -2.30298      119.36508        7.74738
N          3.00025      116.04102        2.97501
C          1.72464      115.33361        2.76920
C          0.52516      116.10898        3.28437
O         -0.06172      115.71070        4.28176
C          1.73696      113.84947        3.19196
C          2.74493      113.10531        2.36912
O          2.74472      113.17752        1.01769
O          3.60504      112.45104        2.92541
H          3.52520      116.24689        2.11012
H          1.55457      115.24541        1.67631
H          0.74603      113.40242        2.96809
H          1.93142      113.71342        4.27610
N          0.03830      117.20283        2.62912
C          0.58393      117.67674        1.35929
C         -0.15641      118.88155        0.79369
O         -1.04695      119.40326        1.44803
H         -0.78286      117.66985        3.04181
H          0.52301      116.85808        0.61919
H          1.64994      117.94989        1.49697
N          0.16827      119.42783       -0.41832
C          1.17340      118.87478       -1.32467
C          0.70337      117.60500       -2.02480
O          1.54095      116.87320       -2.53112
C          1.62156      119.91520       -2.37695
C          0.54652      120.41177       -3.31893
O         -0.72638      119.97867       -3.24047
O          0.83883      121.23355       -4.17193
H         -0.31665      120.29755       -0.68875
H          2.07783      118.63935       -0.72227
H          2.43685      119.47060       -2.98828
H          2.03723      120.79346       -1.83854
N         -0.62362      117.31398       -2.13886
C         -1.14739      116.12990       -2.79718
C         -1.97061      115.30355       -1.84230
O         -2.56300      114.32803       -2.28666
H         -1.32083      117.96566       -1.75176
H         -0.34064      115.48642       -3.21227
H         -1.79493      116.45629       -3.63794
N         -2.01497      115.59009       -0.50749
C         -2.71540      114.76896        0.45921
C         -3.36401      115.63672        1.53334
O         -3.05999      116.81767        1.65054
C         -1.69595      113.81852        1.14614
C         -0.86101      113.00323        0.14700
O         -2.37190      112.93768        2.00145
H         -1.44457      116.35521       -0.13482
H         -3.49754      114.16957       -0.05840
H         -0.99791      114.44937        1.73711
H         -1.67750      112.42327        2.48528
H         -0.14434      112.35749        0.69811
H         -1.51802      112.36081       -0.47444
H         -0.25737      113.66863       -0.50374
N         -4.22636      115.06328        2.40540
C         -4.72424      115.68309        3.62573
C         -4.23433      114.81335        4.78270
O         -3.56818      115.32992        5.66823
C         -6.26754      115.86123        3.53473
C         -6.66076      116.85526        2.39759
C         -6.88484      116.30724        4.87162
C         -6.20990      118.31313        2.60366
H         -4.51643      114.09462        2.20874
H         -4.28350      116.69014        3.78354
H         -6.71774      114.87489        3.28515
H         -7.76762      116.86389        2.29499
H         -6.24471      116.49586        1.43227
H         -7.98418      116.43137        4.75971
H         -6.71171      115.53938        5.65327
H         -6.44829      117.26433        5.22358
H         -5.10805      118.40495        2.67020
H         -6.54018      118.92857        1.74038
H         -6.66665      118.75155        3.51475
N         -4.45129      113.46387        4.78636
C         -3.89707      112.55013        5.78630
C         -2.37303      112.65645        5.87978
O         -1.69194      112.53107        4.87581
C         -4.32082      111.07910        5.49837
C         -3.79654      110.49735        4.17061
O         -5.72327      111.00197        5.51178
H         -5.01753      113.06195        4.02746
H         -4.33369      112.81271        6.77497
H         -3.91010      110.45709        6.32946
H         -5.96050      110.06861        5.75458
H         -4.15831      111.07727        3.29720
H         -2.68968      110.45985        4.14759
H         -4.15102      109.45097        4.05896
N         -1.76929      112.86981        7.08263
C         -0.31227      112.92826        7.26759
C          0.37690      111.60382        6.87268
O         -0.30001      110.69192        6.41771
C          0.01769      113.37201        8.73687
C         -0.38845      112.33986        9.79266
O         -0.58562      114.60176        9.07521
H         -2.38013      113.00064        7.90211
H          0.09548      113.72351        6.60387
H          1.10904      113.51704        8.82565
H         -0.92594      115.04672        8.25811
H          0.11621      111.36938        9.61198
H         -0.08143      112.70720       10.79615
H         -1.48623      112.18549        9.80851
N          1.72322      111.41840        7.05516
C          2.42954      110.17330        6.75623
C          3.78508      110.38416        6.04090
O          4.41481      109.39409        5.69902
C          2.59109      109.44287        8.10522
C          3.14805      108.01362        8.00842
C          3.15275      107.28527        9.36227
C          1.73843      107.01548        9.90921
N          1.79672      106.24853       11.15147
H          2.24625      112.12830        7.56580
H          1.79519      109.53647        6.10075
H          1.57052      109.39019        8.53348
H          3.22406      110.04807        8.79208
H          4.19862      108.05289        7.65818
H          2.55134      107.42155        7.28076
H          3.74464      107.86948       10.10062
H          3.65572      106.30560        9.21112
H          1.15774      106.44121        9.15322
H          1.20341      107.96596       10.11326
H          2.27550      105.33343       10.98783
H          2.30905      106.79252       11.88320
H          0.82232      106.06605       11.48436
N          4.30692      111.62058        5.77657
C          5.61420      111.83879        5.14894
C          6.72977      111.28145        6.00410
O          6.87457      111.69997        7.14540
C          5.87460      113.35508        4.94661
C          7.17517      113.70066        4.18024
C          7.15698      113.14061        2.78745
O          8.09823      112.50978        2.33483
O          6.00959      113.24996        2.10675
H          3.75767      112.44560        6.01230
H          5.60712      111.34597        4.15256
H          5.90667      113.85990        5.93021
H          5.02233      113.80555        4.39654
H          8.08542      113.37410        4.72682
H          7.20523      114.80838        4.09449
N          7.59210      110.36203        5.49549
C          8.72162      109.87619        6.25508
H          9.38991      110.72659        6.51316
H          8.37301      109.38289        7.18622
H          9.29892      109.14628        5.64986
H          7.46319      110.01708        4.53217
Ca         4.84457      112.99269        0.22077
O          3.63572      110.42650       -0.60566
H          2.76296      110.81272       -0.34241
H          4.14653      110.37202        0.24110
O          2.65410      113.70610       -2.04816
H          2.12402      112.90520       -1.80795
H          2.29500      114.42433       -1.46929
O          5.43003      112.79838       -3.18938
H          4.72505      112.88851       -3.87891
H          5.81466      111.89947       -3.34513
O          7.87820      114.63111       -0.69024
H          8.55212      113.91648       -0.81492
H          7.76142      114.69312        0.29083
O          6.98719      111.09378       -0.77026
H          6.74338      110.29890       -0.23315
H          7.39026      111.71799       -0.11687

Ca 1.0



