%chk=apoCaM-CA-Ng.loop1.water3.frame1059.chk
%nprocshared=20
%mem=10GB
%nosave
#b3lyp/svp scf=(tight,noincore,xqc) Test 
#IOP(5/87=12) Density=Current Pop=(MK,readradii) iop(6/33=2) iop(6/42=6)

apoCaM-CA-Ng.loop1.water3.frame1059 

   0  1 
C          4.35485       69.19506       38.02030
C          3.10299       68.78739       38.73330
O          2.61550       69.55397       39.55132
H          5.15674       68.45301       38.21486
H          4.15594       69.25141       36.93023
H          4.69708       70.19249       38.37269
N          2.53250       67.57403       38.48012
C          1.31077       67.12065       39.13890
C          1.60674       65.97332       40.08725
O          0.93272       64.95161       40.05671
C          0.20763       66.81497       38.09608
C          0.51595       65.69723       37.12435
O          1.66352       64.99375       37.19107
O         -0.30077       65.41664       36.26213
H          3.00187       66.94888       37.80950
H          0.91484       67.93061       39.78760
H          0.02166       67.74084       37.50964
H         -0.73203       66.55647       38.63131
N          2.61549       66.10307       40.99281
C          2.90033       65.11252       42.02205
C          1.76402       65.11148       43.04139
O          1.17012       64.05695       43.20942
C          4.29619       65.32190       42.66801
C          5.47486       64.88546       41.76792
C          5.55115       65.59119       40.40136
C          6.75279       65.14005       39.55423
N          8.03189       65.55501       40.13187
H          3.19757       66.95291       40.95073
H          2.94814       64.09819       41.56249
H          4.35958       64.67935       43.57357
H          4.46480       66.36172       42.99961
H          5.40156       63.79017       41.58950
H          6.40139       65.07798       42.34655
H          5.58517       66.69403       40.53254
H          4.64765       65.32497       39.81532
H          6.65487       65.60296       38.54700
H          6.73384       64.03485       39.42292
H          8.80109       65.28347       39.47805
H          8.04772       66.59356       40.25531
H          8.20192       65.08264       41.04697
N          1.32629       66.21461       43.72713
C          1.87199       67.56622       43.64037
C          0.93782       68.47971       42.87925
O         -0.13001       68.04765       42.46070
C          2.22013       68.09482       45.05084
C          1.04519       68.12167       45.99057
O          0.07113       68.81854       45.75484
O          1.07469       67.37567       47.11009
H          0.49725       66.08735       44.33043
H          2.79456       67.59062       43.05465
H          2.64795       69.11768       44.98903
H          3.00195       67.43344       45.48290
N          1.31856       69.75798       42.60405
C          0.52334       70.67002       41.80304
C         -0.80174       70.99328       42.44054
O         -1.09682       70.52374       43.52763
H          2.23686       70.09323       42.93303
H          0.34277       70.21335       40.80619
H          1.08308       71.61791       41.65733
N         -1.66473       71.81762       41.78146
C         -3.00233       72.11757       42.29960
C         -3.64452       73.24499       41.44528
O         -3.20590       73.43910       40.32222
C         -3.83063       70.79783       42.23109
C         -4.98332       70.66434       43.18724
O         -4.82926       70.31431       44.49361
O         -6.11795       70.72498       42.74103
H         -1.33306       72.22700       40.89753
H         -2.84794       72.45694       43.34104
H         -3.20926       69.90688       42.42178
H         -4.17929       70.67919       41.17987
N         -4.66701       74.05778       41.85693
C         -5.29559       74.05188       43.15834
C         -4.35745       74.46751       44.25566
O         -3.21978       74.83984       43.98808
H         -5.02126       74.75555       41.18141
H         -5.71856       73.06231       43.36709
H         -6.14218       74.77322       43.16053
N         -4.78741       74.43602       45.54431
C         -3.93357       74.82293       46.66162
C         -2.71718       73.90460       46.74139
O         -2.71935       72.85540       46.11388
C         -4.76987       74.83505       47.96955
C         -4.02864       75.39691       49.18290
O         -5.22706       73.53851       48.25631
H         -5.76050       74.13860       45.72540
H         -3.58459       75.85905       46.45495
H         -5.63925       75.50713       47.77375
H         -6.04545       73.63143       48.81058
H         -4.72973       75.46781       50.04062
H         -3.19390       74.73379       49.48584
H         -3.64705       76.41530       48.96054
N         -1.61672       74.28017       47.45778
C         -0.38825       73.50029       47.58523
C         -0.65883       72.21133       48.34367
O         -1.43486       71.38716       47.88341
C          0.31414       73.25849       46.20837
C          0.55665       74.61903       45.49954
C          1.64158       72.49692       46.41668
C          1.20520       74.50477       44.11815
H         -1.62821       75.19793       47.92434
H          0.32152       74.10759       48.19135
H         -0.33207       72.63196       45.55765
H          1.19170       75.27157       46.13816
H         -0.42052       75.12669       45.35225
H          1.46423       71.51841       46.90950
H          2.13394       72.26877       45.45018
H          2.33876       73.09104       47.04601
H          1.28408       75.51731       43.66809
H          2.23296       74.09447       44.18437
H          0.58920       73.86560       43.45117
N         -0.00180       71.95353       49.50952
C         -0.15662       70.69348       50.22813
C         -1.45479       70.60826       51.02920
O         -1.70298       69.55868       51.60669
C          1.06383       70.43221       51.15387
C          1.13445       71.38592       52.35477
O          2.25613       70.54240       50.41858
H          0.70366       72.63270       49.82964
H         -0.13767       69.88434       49.47195
H          0.99091       69.40233       51.57557
H          2.29089       69.76437       49.80287
H          2.02558       71.14063       52.97023
H          1.21168       72.44430       52.03431
H          0.23700       71.27213       52.99895
N         -2.28821       71.68096       51.18239
C         -3.43607       71.65552       52.08741
C         -4.47117       70.65466       51.61662
O         -5.04367       70.85651       50.55511
C         -4.06326       73.07207       52.20334
C         -5.23585       73.13494       53.19037
O         -3.08929       74.01834       52.56958
H         -2.05728       72.56652       50.71040
H         -3.06349       71.36706       53.09607
H         -4.45060       73.36047       51.20369
H         -2.68990       73.72376       53.42953
H         -5.64437       74.16757       53.21577
H         -6.05245       72.45204       52.87817
H         -4.89960       72.85718       54.21167
N         -4.74993       69.53980       52.35797
C         -5.73826       68.53756       51.97464
C         -5.43598       68.02865       50.57661
O         -6.27204       68.15841       49.69212
C         -7.17880       69.10233       52.09655
C         -7.56487       69.56731       53.51461
C         -7.64059       68.42249       54.53961
C         -8.09322       68.94586       55.91132
N         -8.19593       67.85757       56.88381
H         -4.21731       69.37223       53.22506
H         -5.66239       67.66866       52.66194
H         -7.90970       68.32646       51.77636
H         -7.28911       69.96926       51.41123
H         -8.57413       70.03036       53.44785
H         -6.85254       70.34443       53.86335
H         -6.64766       67.94164       54.65697
H         -8.36964       67.66164       54.18332
H         -9.08559       69.44047       55.81477
H         -7.36080       69.69855       56.27918
H         -7.26975       67.38547       56.99801
H         -8.49097       68.25030       57.80709
H         -8.91105       67.16155       56.57022
N         -4.24334       67.42262       50.31299
C         -3.88317       66.92675       48.98936
C         -2.52032       67.51631       48.50563
O         -2.67081       68.89093       48.22829
C         -3.97618       65.38156       48.94659
C         -5.41306       64.90136       49.21430
C         -5.50833       63.40480       49.14732
O         -4.80099       62.64284       50.00387
O         -6.24055       62.87182       48.32914
H         -3.58363       67.27350       51.09159
H         -4.62166       67.26007       48.23441
H         -3.32944       64.89580       49.69262
H         -3.67016       65.03454       47.93543
H         -6.09619       65.35238       48.46112
H         -5.74315       65.22058       50.22597
N         -1.40186       67.39716       49.46649
C         -1.04510       66.05307       49.91545
H         -0.03049       66.07426       50.37024
H         -1.71183       65.73931       50.74223
H         -1.03404       65.33061       49.07182
H         -0.56115       67.76728       48.97277
Ca        -3.28556       69.56717       46.06189
O         -3.24625       67.56909       43.56539
H         -2.95707       66.81939       42.98849
H         -2.42449       68.09882       43.71705
O         -5.11561       67.37561       45.80512
H         -5.07972       66.48020       45.38622
H         -5.98379       67.75795       45.52448
O         -5.63580       70.50260       47.59435
H         -5.16659       69.77035       48.06422
H         -4.92199       71.16227       47.41019

Ca 1.0



