%chk=apoCaM-CA-Ng.loop2.water4.frame1152.chk
%nprocshared=20
%mem=10GB
%nosave
#b3lyp/svp scf=(tight,noincore,xqc) Test 
#IOP(5/87=12) Density=Current Pop=(MK,readradii) iop(6/33=2) iop(6/42=6)

apoCaM-CA-Ng.loop2.water4.frame1152 

   -2  1 
C         87.84046       30.69100      101.39800
C         87.20850       31.32750      102.60528
O         86.09108       30.95999      102.93688
H         88.78618       30.18784      101.69147
H         87.16346       29.92945      100.95682
H         88.04726       31.46259      100.62700
N         87.83607       32.28568      103.34523
C         89.16687       32.81337      103.06218
C         89.14002       34.29836      102.78093
O         88.10713       34.92443      102.95761
C         90.15422       32.42457      104.18354
C         89.77806       32.66543      105.63489
O         90.52114       32.20178      106.48519
O         88.63398       33.25051      106.05837
H         87.33197       32.65627      104.16093
H         89.56796       32.36743      102.13040
H         91.14766       32.88169      103.98507
H         90.27968       31.32288      104.09932
N         90.25022       34.89195      102.23800
C         90.40281       36.29733      101.86713
C         90.78813       37.13751      103.06338
O         91.84461       37.75399      103.02925
C         89.19665       36.86841      101.10228
H         91.05216       34.28303      102.01414
H         91.26045       36.35869      101.15820
H         88.97820       36.23891      100.21377
H         88.28666       36.94329      101.72966
H         89.42899       37.89684      100.75146
N         89.98313       37.21236      104.15501
C         90.26872       38.04281      105.31288
C         90.43938       37.25046      106.59749
O         90.13742       36.07123      106.65029
C         89.18672       39.13881      105.40950
C         87.70564       38.76243      105.36712
O         87.18864       37.50613      105.34768
O         86.91189       39.68700      105.29861
H         89.11200       36.68711      104.14307
H         91.24428       38.55804      105.17321
H         89.34338       39.78075      104.51418
H         89.37358       39.77255      106.30263
N         91.00951       37.84495      107.68177
C         91.14527       37.17953      108.96542
C         89.87308       37.26363      109.78560
O         89.89873       36.81376      110.92222
H         91.38521       38.80141      107.59211
H         91.91853       37.71826      109.55585
H         91.50014       36.13280      108.83775
N         88.74623       37.87845      109.31217
C         87.57527       38.15970      110.13305
C         86.33613       37.45443      109.57922
O         86.40861       36.83885      108.52390
C         87.40450       39.69809      110.13533
C         86.33653       40.19637      111.06725
N         85.15847       40.65023      110.57998
O         86.52622       40.16848      112.27409
H         88.72301       38.23800      108.34798
H         87.73844       37.79940      111.17149
H         87.18204       40.01780      109.09322
H         88.35891       40.19264      110.42633
H         84.96708       40.63366      109.56727
H         84.41803       40.97411      111.21864
N         85.15316       37.50457      110.25793
C         83.93590       36.86473      109.77332
C         82.71912       37.15502      110.65081
O         82.84189       37.88749      111.62228
H         85.13104       38.00684      111.15271
H         84.10880       35.77039      109.73016
H         83.71061       37.24663      108.75272
N         81.47611       36.65641      110.37529
C         81.16299       35.75923      109.26636
C         80.27192       36.44538      108.25391
O         79.74154       37.51432      108.52640
C         80.48363       34.46134      109.77647
C         81.41045       33.62207      110.66557
O         79.27231       34.74906      110.43773
H         80.69976       36.95226      110.98765
H         82.08698       35.48481      108.72127
H         80.23532       33.82118      108.90247
H         79.48004       35.06101      111.35747
H         80.88192       32.69748      110.98351
H         82.31875       33.33158      110.09699
H         81.71518       34.18681      111.57166
N         80.12850       35.89155      107.01556
C         79.34675       36.49251      105.94305
C         78.36186       35.47779      105.36128
O         78.75742       34.34177      105.14004
C         80.26131       37.07994      104.82874
C         81.18328       36.02995      104.15612
C         81.06797       38.26461      105.39909
C         81.90540       36.57065      102.92047
H         80.65060       35.02706      106.80552
H         78.79192       37.36150      106.33697
H         79.58063       37.48496      104.05068
H         80.57816       35.17657      103.79445
H         81.92883       35.64758      104.88489
H         81.64339       38.78751      104.61158
H         80.37955       39.01843      105.83913
H         81.77076       37.92314      106.18743
H         82.50832       35.75899      102.46270
H         81.16289       36.92070      102.17090
H         82.59344       37.40082      103.17269
N         77.07840       35.79382      105.01403
C         76.47464       37.10965      105.20155
C         75.38543       37.40463      104.17651
O         75.09327       36.57555      103.32510
C         75.96100       37.23022      106.66145
C         74.84813       36.27682      107.02459
O         74.39213       35.48523      106.21427
O         74.34431       36.30405      108.27260
H         76.51086       35.04755      104.58200
H         77.22945       37.89769      105.00530
H         75.60254       38.26117      106.85287
H         76.80062       37.04711      107.36293
N         74.72644       38.59587      104.23333
C         73.60484       38.95059      103.37771
C         73.71511       40.41354      102.94327
O         73.92662       41.24168      103.82046
C         72.31317       38.78138      104.19369
C         71.12441       39.06208      103.31472
C         70.56795       40.34992      103.27378
C         70.61065       38.05813      102.47728
C         69.51351       40.63120      102.40373
C         69.54726       38.34091      101.61597
C         69.00188       39.62761      101.57657
H         74.96857       39.25081      104.99067
H         73.51800       38.25020      102.52661
H         72.32672       39.46225      105.07328
H         72.24174       37.74350      104.58950
H         70.96910       41.13986      103.89684
H         71.03843       37.06259      102.48723
H         69.10065       41.63027      102.36559
H         69.15374       37.56569      100.97172
H         68.18705       39.84909      100.90086
N         73.48881       40.85503      101.66350
C         73.14985       40.04959      100.49580
C         74.19620       39.00965      100.19578
O         73.85742       37.85387       99.98439
C         73.08115       41.07680       99.35536
C         72.58421       42.30498      100.07974
C         73.43674       42.26831      101.34140
H         72.14861       39.59103      100.64425
H         74.10507       41.32615       98.99386
H         72.46998       40.75356       98.48552
H         72.64489       43.25582       99.50941
H         71.52186       42.12454      100.36683
H         74.47255       42.63138      101.15907
H         72.93899       42.88177      102.12420
N         75.51004       39.35448      100.24367
C         76.58519       38.39468      100.07044
C         76.70807       38.04958       98.59233
O         77.06090       38.94484       97.83682
C         77.90411       39.00049      100.60193
C         77.82863       39.23583      102.12357
C         79.03057       39.97768      102.62698
O         78.87301       41.15189      103.26824
O         80.15166       39.52651      102.46214
H         75.74659       40.32907      100.48689
H         76.38461       37.51927      100.71127
H         78.09820       39.96445      100.08026
H         78.75211       38.31100      100.39568
H         77.75156       38.25364      102.63514
H         76.92870       39.83040      102.38925
N         76.44135       36.82205       98.05211
C         75.92979       35.65450       98.74491
H         74.96916       35.35568       98.27389
H         76.64983       34.81768       98.64038
H         75.72458       35.80324       99.81534
H         76.58617       36.70797       97.03665
Ca        87.86183       35.36203      105.73959
O         88.04857       34.42466      108.86797
H         87.86238       34.61898      109.82080
H         88.95454       34.02595      108.86656
O         85.06861       33.74478      104.63927
H         85.39146       34.14259      103.79174
H         84.08889       33.88227      104.62124
O         84.49517       36.49357      105.69702
H         84.75993       36.52826      104.74328
H         84.34002       37.43868      105.94553
O         84.96441       34.09488      107.73394
H         84.91489       33.71792      108.64813
H         84.02080       34.25576      107.48030

Ca 1.0



