%chk=apoCaM-CA-Ng.loop2.water2.frame949.chk
%nprocshared=20
%mem=10GB
%nosave
#b3lyp/svp scf=(tight,noincore,xqc) Test 
#IOP(5/87=12) Density=Current Pop=(MK,readradii) iop(6/33=2) iop(6/42=6)

apoCaM-CA-Ng.loop2.water2.frame949 

   -2  1 
C         77.75260       91.78689       44.61567
C         76.53326       91.18445       43.98354
O         76.66210       90.26843       43.18322
H         78.67547       91.29066       44.24650
H         77.80580       92.86860       44.37156
H         77.69777       91.66402       45.71780
N         75.29678       91.66234       44.30073
C         74.06585       91.14070       43.71037
C         73.72939       89.71403       44.18459
O         72.74781       89.16425       43.70516
C         72.90747       92.12323       43.99858
C         71.66973       91.81257       43.20175
O         70.50826       91.55016       43.82908
O         71.70823       91.81774       41.98086
H         75.24187       92.46538       44.94754
H         74.20910       91.13340       42.60577
H         73.22514       93.14909       43.70630
H         72.67998       92.12825       45.08639
N         74.51396       89.03577       45.07895
C         74.30715       87.63860       45.45797
C         74.61584       87.44207       46.94399
O         75.69651       87.85242       47.34593
C         75.28107       86.78340       44.64298
H         75.36739       89.48200       45.43648
H         73.29588       87.29233       45.17263
H         75.07543       86.91361       43.55846
H         76.33369       87.07950       44.83936
H         75.15566       85.70927       44.89362
N         73.80722       86.80114       47.84373
C         72.54090       86.13346       47.55922
C         71.57260       86.25699       48.73485
O         71.93845       86.81077       49.76071
C         72.80958       84.68243       47.09669
C         73.72372       83.85496       47.98000
O         74.78342       83.44992       47.52864
O         73.35866       83.47115       49.21730
H         74.19306       86.67653       48.79351
H         72.01282       86.66016       46.74005
H         73.30079       84.75411       46.10288
H         71.85227       84.14139       46.94221
N         70.27165       85.86109       48.60174
C         69.24862       86.12269       49.60851
C         68.29761       84.95503       49.76998
O         67.15200       85.10391       49.36802
H         69.96291       85.48375       47.69258
H         68.64608       86.97457       49.22255
H         69.66455       86.44910       50.58241
N         68.63867       83.75069       50.30916
C         69.92958       83.41688       50.89526
C         70.05878       84.08681       52.26251
O         69.28683       83.76072       53.15454
C         70.00532       81.87317       51.02100
C         71.30892       81.30949       51.50392
N         71.44220       79.97039       51.64353
O         72.24564       82.04258       51.76334
H         67.91227       83.01554       50.28876
H         70.73293       83.73730       50.19781
H         69.82076       81.43413       50.01589
H         69.20165       81.52188       51.70473
H         70.65898       79.33956       51.42065
H         72.32180       79.55628       51.97754
N         70.98636       85.06081       52.48888
C         71.09198       85.78253       53.75178
C         71.93367       85.07284       54.79570
O         72.04292       85.59057       55.89714
H         71.57862       85.36662       51.70846
H         70.07482       86.00656       54.14197
H         71.58921       86.75890       53.56575
N         72.59427       83.91635       54.51279
C         73.46702       83.21015       55.44599
C         74.88628       83.17010       54.88249
O         75.11466       83.69209       53.80133
C         72.90709       81.77988       55.68227
C         71.51727       81.82931       56.32324
O         72.80910       81.06710       54.47669
H         72.50416       83.51452       53.57656
H         73.51522       83.73241       56.42646
H         73.55962       81.22120       56.38977
H         73.73255       80.91221       54.15317
H         70.79031       82.33607       55.65288
H         71.15287       80.79685       56.51200
H         71.55599       82.37178       57.29149
N         75.88983       82.53680       55.55868
C         77.24685       82.39998       55.03141
C         77.46774       80.93429       54.72490
O         77.30787       80.10569       55.60949
C         78.30577       82.95908       56.02185
C         79.73106       82.78339       55.42105
C         78.00569       84.44080       56.31880
C         80.86327       83.25977       56.33109
H         75.67758       82.08965       56.46264
H         77.35853       82.97334       54.08496
H         78.24360       82.39194       56.97752
H         79.80336       83.32292       54.45098
H         79.91476       81.70475       55.22699
H         78.71073       84.85141       57.06854
H         78.07013       85.04616       55.38912
H         76.98868       84.55548       56.74859
H         80.81249       84.35353       56.50278
H         80.82808       82.72544       57.30361
H         81.83766       83.04557       55.84215
N         77.81356       80.55208       53.46282
C         77.89566       79.16244       53.03796
C         79.30037       78.74244       52.64839
O         79.47916       77.55553       52.39533
C         76.90521       78.95813       51.87091
C         75.49682       79.18399       52.34681
O         75.05809       78.46746       53.23299
O         74.68697       80.14152       51.84212
H         77.98130       81.27561       52.75287
H         77.61479       78.48668       53.87634
H         76.97341       77.91573       51.48995
H         77.15135       79.65227       51.03841
N         80.34952       79.61205       52.58129
C         81.70697       79.16664       52.28191
C         82.58121       80.34304       51.88072
O         82.66163       81.29708       52.64758
C         82.30038       78.39704       53.49289
C         83.70129       77.87774       53.23121
C         84.80559       78.75245       53.21535
C         83.91940       76.50722       53.00351
C         86.09135       78.26987       52.96097
C         85.20858       76.02924       52.74417
C         86.29276       76.90998       52.72088
H         80.18213       80.61914       52.72775
H         81.64633       78.46151       51.43037
H         81.63274       77.53470       53.70058
H         82.30758       79.02403       54.41134
H         84.68039       79.80875       53.40719
H         83.09176       75.80936       53.01139
H         86.93170       78.95226       52.95036
H         85.36738       74.97504       52.55863
H         87.28948       76.53901       52.52011
N         83.30941       80.34525       50.71643
C         84.22086       81.40886       50.32087
C         83.60465       82.78461       50.13243
O         84.36121       83.71085       49.87601
C         84.77613       80.93004       48.97302
C         84.78399       79.43337       49.15437
C         83.43637       79.20235       49.82607
H         85.01782       81.45564       51.09744
H         84.02975       81.13990       48.17036
H         85.74706       81.38397       48.68255
H         84.94444       78.83737       48.23105
H         85.59057       79.18980       49.88459
H         82.59278       79.21767       49.10201
H         83.50611       78.22457       50.34784
N         82.25700       83.00580       50.20065
C         81.68379       84.33070       49.97550
C         82.09462       85.35295       51.03112
O         81.78934       86.52359       50.84391
C         80.14362       84.27289       49.85327
C         79.41605       83.83879       51.13806
C         77.93060       83.88417       50.91994
O         77.25898       82.87126       51.01665
O         77.33199       85.04898       50.60805
H         81.62304       82.21009       50.34628
H         82.06461       84.68527       48.99121
H         79.87545       83.57362       49.03031
H         79.78407       85.28546       49.56381
H         79.66552       84.52299       51.97659
H         79.72199       82.81045       51.42451
N         82.77204       85.00590       52.16295
C         83.17028       85.98880       53.14603
H         83.85510       86.73042       52.68178
H         82.27527       86.50884       53.54823
H         83.70186       85.49165       53.98504
H         83.01279       84.02377       52.35256
Ca        74.52714       81.80106       50.27758
O         74.55152       85.53293       51.67594
H         75.23113       86.19509       51.95712
H         73.80781       86.08327       51.33061
O         76.24851       80.52935       48.02700
H         76.84119       80.81615       48.76665
H         75.56361       79.96187       48.46253

Ca 1.0



