%chk=apoCaM-CA-Ng.loop2.water4.frame1382.chk
%nprocshared=20
%mem=10GB
%nosave
#b3lyp/svp scf=(tight,noincore,xqc) Test 
#IOP(5/87=12) Density=Current Pop=(MK,readradii) iop(6/33=2) iop(6/42=6)

apoCaM-CA-Ng.loop2.water4.frame1382 

   -2  1 
C          2.64115       51.42609       47.05201
C          3.75469       51.62457       48.04816
O          4.87236       51.26844       47.70435
H          1.65309       51.80146       47.35931
H          2.90827       51.96830       46.11956
H          2.54509       50.34636       46.81756
N          3.60860       52.20472       49.27609
C          2.36896       52.67759       49.88867
C          2.19914       52.10770       51.29608
O          1.32909       52.58909       52.00915
C          2.35718       54.22476       49.85412
C          3.51289       54.84014       50.57804
O          3.60827       54.74359       51.91250
O          4.38945       55.41612       49.95337
H          4.47259       52.35414       49.82306
H          1.46866       52.37626       49.32805
H          1.40894       54.62876       50.26935
H          2.40833       54.52464       48.78394
N          2.94798       51.05231       51.75037
C          2.82905       50.51549       53.10123
C          4.20629       50.41595       53.74673
O          4.56747       49.35015       54.22983
C          2.12819       49.14862       53.04314
H          3.60859       50.58009       51.11571
H          2.20330       51.18327       53.73175
H          1.12132       49.25632       52.58684
H          2.71792       48.43130       52.43160
H          2.00166       48.73098       54.06542
N          5.05094       51.48888       53.75453
C          6.39332       51.44035       54.33963
C          6.62274       52.59362       55.31146
O          5.78772       53.48004       55.42954
C          7.45882       51.41697       53.21212
C          7.37070       52.62953       52.33339
O          7.02565       52.52050       51.16734
O          7.53830       53.85064       52.86626
H          4.74952       52.35413       53.28060
H          6.52197       50.49974       54.91770
H          7.28475       50.50789       52.59422
H          8.48237       51.34545       53.63551
N          7.76542       52.62357       56.05194
C          8.13170       53.69194       56.97136
C          8.56823       54.95132       56.25316
O          8.42600       55.04361       55.04451
H          8.41592       51.82690       55.97714
H          9.02485       53.34449       57.53390
H          7.32242       53.89071       57.70668
N          9.21012       55.93605       56.94587
C          9.79627       57.10937       56.30199
C         11.32454       57.02804       56.29165
O         11.93777       57.88977       55.67605
C          9.35541       58.41319       57.00806
C          7.87150       58.69015       56.94664
N          6.97233       57.89156       57.56828
O          7.47830       59.68115       56.34931
H          9.35857       55.80805       57.95909
H          9.48636       57.16018       55.23467
H          9.87654       59.26256       56.51173
H          9.67811       58.39785       58.07207
H          7.26833       57.06958       58.11072
H          5.96631       58.11244       57.52634
N         12.01205       56.04828       56.95243
C         13.46681       55.96143       56.98908
C         13.95455       54.56202       56.65652
O         13.13657       53.71976       56.31131
H         11.50142       55.35208       57.51294
H         13.76705       56.17723       58.03186
H         13.95051       56.70709       56.32341
N         15.26044       54.18008       56.80273
C         16.35834       55.05186       57.22528
C         17.58042       54.95117       56.29893
O         18.55610       55.63519       56.57872
C         16.79238       54.67849       58.66828
C         15.67159       54.89898       59.69065
O         17.21186       53.33828       58.70848
H         15.47379       53.17923       56.66710
H         16.03803       56.11431       57.23519
H         17.63755       55.34802       58.95641
H         17.79618       53.24248       59.50556
H         15.36402       55.96582       59.69687
H         14.79217       54.26020       59.46440
H         16.03543       54.64608       60.70886
N         17.63310       54.11048       55.21867
C         18.84045       53.88909       54.41574
C         18.56360       54.28906       52.96532
O         17.54833       53.85473       52.43891
C         19.26865       52.39030       54.51584
C         19.51561       52.01081       56.00274
C         20.53055       52.11882       53.66717
C         19.92506       50.55331       56.22288
H         16.80589       53.55291       54.96501
H         19.67826       54.48208       54.82538
H         18.44534       51.75712       54.11621
H         18.57905       52.17233       56.57679
H         20.30337       52.66651       56.43510
H         21.40123       52.67988       54.06696
H         20.78405       51.04060       53.65842
H         20.37005       52.40255       52.60659
H         20.91110       50.33680       55.76391
H         20.02180       50.36107       57.31234
H         19.15889       49.86778       55.80467
N         19.39402       55.08441       52.21800
C         20.71893       55.54382       52.63762
C         21.73225       55.54150       51.48870
O         21.37473       55.30928       50.34408
C         20.61626       56.90229       53.36830
C         20.07020       58.03888       52.54295
O         19.93105       59.25144       53.11169
O         19.74717       57.88514       51.37578
H         19.09411       55.29703       51.25397
H         21.14820       54.81433       53.34467
H         21.61783       57.19720       53.74513
H         19.95343       56.77924       54.25091
N         23.04777       55.77496       51.75733
C         24.11340       55.78452       50.75534
C         24.36117       54.39748       50.15544
O         24.57310       53.47387       50.93180
C         25.44564       56.19746       51.43452
C         26.57938       56.24673       50.43522
C         27.56407       55.24229       50.42712
C         26.64280       57.27779       49.48461
C         28.58573       55.26469       49.47366
C         27.67391       57.30348       48.54083
C         28.64185       56.29546       48.53238
H         23.30445       55.96987       52.73727
H         23.87175       56.54409       49.98440
H         25.67328       55.44565       52.22434
H         25.35929       57.18195       51.94246
H         27.52795       54.42890       51.14143
H         25.89361       58.05946       49.47592
H         29.33100       54.47973       49.46159
H         27.71896       58.10194       47.81209
H         29.43397       56.31164       47.79527
N         24.51551       54.18054       48.80996
C         24.30319       55.15360       47.75117
C         22.82102       55.25509       47.43222
O         22.35165       56.35021       47.15885
C         25.13862       54.58296       46.59630
C         24.98440       53.08853       46.75870
C         25.05174       52.93384       48.28052
H         24.72769       56.15839       47.95095
H         24.90347       54.99199       45.59005
H         26.20857       54.81020       46.81565
H         23.97433       52.82265       46.39044
H         25.71364       52.46585       46.19801
H         24.48406       52.03439       48.60223
H         26.10942       52.85439       48.61698
N         22.01162       54.15911       47.51237
C         20.58360       54.18224       47.24098
C         20.36618       54.37557       45.74632
O         20.82402       53.53444       44.98499
C         19.93407       52.85092       47.69700
C         20.08186       52.62612       49.21626
C         19.49644       51.31294       49.64254
O         20.27919       50.38664       50.22967
O         18.30975       51.08271       49.47606
H         22.41870       53.26715       47.81784
H         20.11622       54.98982       47.84117
H         20.40709       52.00191       47.15387
H         18.85095       52.86947       47.44511
H         19.56861       53.44154       49.76484
H         21.15243       52.63070       49.51012
N         19.69446       55.43635       45.21661
C         19.11556       56.50199       46.00351
H         18.34905       56.09422       46.69494
H         19.90575       57.02728       46.57792
H         18.62841       57.24070       45.33227
H         19.59116       55.49014       44.19098
Ca         5.66660       55.04217       52.70793
O          3.76673       57.83141       52.42461
H          2.81963       58.02333       52.63993
H          3.79942       57.82205       51.43513
O          4.55122       56.54839       55.54126
H          3.99377       55.75962       55.75854
H          3.90671       57.29739       55.47667
O          6.65933       58.34541       53.68139
H          5.98544       58.77491       54.26586
H          6.93228       59.06031       53.05307
O          7.51233       56.81948       50.98916
H          8.25263       56.93642       51.63645
H          7.60432       57.58217       50.36470

Ca 1.0



