%chk=apoCaM-CA-Ng.loop2.water4.frame1029.chk
%nprocshared=20
%mem=10GB
%nosave
#b3lyp/svp scf=(tight,noincore,xqc) Test 
#IOP(5/87=12) Density=Current Pop=(MK,readradii) iop(6/33=2) iop(6/42=6)

apoCaM-CA-Ng.loop2.water4.frame1029 

   -2  1 
C         26.74073       66.06023       74.30403
C         25.34619       65.48863       74.20878
O         24.87454       65.35460       73.08937
H         27.45430       65.37877       73.79398
H         26.76499       67.04538       73.79348
H         27.09259       66.23759       75.33583
N         24.58038       65.14284       75.28899
C         25.01076       65.20203       76.68653
C         23.78625       65.10575       77.61135
O         22.79537       65.75417       77.30630
C         26.10270       64.11613       76.93518
C         25.62762       62.72120       76.59589
O         26.15324       62.10932       75.68002
O         24.63861       62.13231       77.29276
H         23.61755       64.82622       75.09140
H         25.42142       66.21680       76.87589
H         26.48732       64.15285       77.97379
H         26.98117       64.31376       76.29475
N         23.77706       64.35039       78.75522
C         22.63291       64.14268       79.64567
C         21.54409       63.24564       79.05347
O         20.64275       62.87707       79.79400
C         22.06178       65.46847       80.17361
H         24.64212       63.88483       79.05462
H         23.01939       63.58277       80.52729
H         21.59150       66.06767       79.36834
H         21.28139       65.27097       80.93868
H         22.86736       66.07003       80.64553
N         21.55391       62.83631       77.75117
C         20.54999       61.93889       77.17699
C         20.70626       60.50341       77.70144
O         21.64153       60.22047       78.43814
C         20.64981       61.97984       75.62643
C         22.00132       61.50979       75.16336
O         22.76749       62.26602       74.58863
O         22.39278       60.26826       75.48419
H         22.27954       63.19570       77.12430
H         19.54074       62.32092       77.44686
H         20.48481       63.02851       75.29102
H         19.85957       61.35177       75.16463
N         19.81157       59.54036       77.33247
C         19.87743       58.14123       77.74676
C         21.00655       57.35423       77.10265
O         21.81408       57.91143       76.37842
H         19.00687       59.81950       76.75219
H         18.93643       57.64611       77.42564
H         19.93922       58.07402       78.85466
N         21.10142       56.00952       77.31890
C         22.16834       55.17975       76.75151
C         22.13243       55.08238       75.22671
O         23.06737       54.52321       74.66814
C         22.09122       53.73711       77.30361
C         22.19747       53.68608       78.80549
N         21.19441       53.16443       79.55043
O         23.20314       54.11049       79.35443
H         20.40498       55.57203       77.94185
H         23.13965       55.62524       77.05485
H         22.92078       53.12566       76.88497
H         21.13245       53.27758       76.97324
H         20.33970       52.79733       79.10637
H         21.27156       53.12493       80.57722
N         21.07470       55.52224       74.48654
C         20.98578       55.31285       73.04863
C         21.97835       56.14016       72.24735
O         22.73615       56.89396       72.83901
H         20.25886       55.94250       74.95337
H         19.96877       55.61377       72.71906
H         21.11565       54.22958       72.83945
N         22.00510       56.11814       70.87781
C         21.15041       55.26587       70.05598
C         21.96198       54.59011       68.95831
O         22.00843       53.36861       68.92053
C         19.98338       56.09074       69.45364
C         18.98330       55.18488       68.72535
O         19.29050       56.75785       70.47702
H         22.63269       56.78167       70.39691
H         20.68470       54.47662       70.67923
H         20.36201       56.83742       68.71779
H         19.75690       57.62134       70.62998
H         18.56254       54.43498       69.43104
H         18.14623       55.79276       68.32249
H         19.46604       54.65026       67.88092
N         22.56161       55.33330       67.98144
C         23.20029       54.73657       66.81018
C         24.53030       54.10286       67.23079
O         25.36592       54.85457       67.71630
C         23.44474       55.79875       65.68233
C         22.12236       56.52676       65.29311
C         24.05306       55.10849       64.43879
C         22.31291       57.65688       64.27777
H         22.49244       56.35790       68.04412
H         22.47488       54.03268       66.37008
H         24.16397       56.55986       66.05920
H         21.67140       57.00643       66.18316
H         21.38444       55.79642       64.89658
H         23.34306       54.35757       64.03006
H         24.29631       55.83799       63.64156
H         25.00322       54.59339       64.68648
H         21.34080       58.16770       64.11137
H         23.03904       58.40286       64.66650
H         22.65917       57.27705       63.29653
N         24.87081       52.78429       67.07815
C         24.03082       51.71686       66.53354
C         24.58687       51.19983       65.21593
O         25.66380       51.60778       64.80842
C         23.83970       50.60083       67.58726
C         25.08985       49.87676       68.03166
O         26.18368       50.12196       67.54799
O         24.99170       48.93135       68.98510
H         25.82522       52.52460       67.36825
H         23.02637       52.09043       66.29804
H         23.13061       49.84146       67.19553
H         23.37822       51.06127       68.48685
N         23.83283       50.35545       64.44916
C         24.23209       49.95016       63.10461
C         23.06250       49.25791       62.39875
O         22.61882       48.24772       62.92525
C         25.43971       48.98257       63.10647
C         25.98692       48.89668       61.69851
C         25.70795       47.80152       60.86370
C         26.75368       49.96443       61.19706
C         26.18118       47.78649       59.54519
C         27.23539       49.93815       59.88717
C         26.94506       48.85246       59.05908
H         22.89989       50.08865       64.79575
H         24.55397       50.85477       62.56708
H         25.11592       47.98841       63.48703
H         26.26217       49.32348       63.76985
H         25.10399       46.97707       61.22031
H         26.97711       50.81846       61.82507
H         25.95014       46.95254       58.89541
H         27.82688       50.76430       59.51347
H         27.30960       48.84070       58.03991
N         22.54154       49.66576       61.19091
C         23.02427       50.77241       60.36892
C         22.68038       52.16440       60.92108
O         22.98871       52.42732       62.07253
C         22.40494       50.47951       58.98332
C         22.23776       48.97178       59.01349
C         21.67367       48.80180       60.41552
H         24.12565       50.65552       60.28265
H         21.35899       50.85872       58.93597
H         22.97454       50.89183       58.12350
H         21.59020       48.56432       58.20809
H         23.24039       48.48958       58.96134
H         20.63547       49.20347       60.45559
H         21.66873       47.73762       60.73534
N         22.05484       53.12207       60.16883
C         21.74193       54.45532       60.66841
C         22.34685       55.49532       59.72007
O         21.59591       56.21915       59.08088
C         20.20439       54.56347       60.79044
C         19.75309       55.83987       61.51901
C         18.25563       55.89178       61.61720
O         17.63994       56.82170       61.12107
O         17.58380       54.91622       62.25869
H         21.77326       52.92947       59.19875
H         22.15017       54.61349       61.69040
H         19.84361       53.69515       61.38647
H         19.74007       54.50037       59.78078
H         20.11416       56.74374       60.98686
H         20.17825       55.84982       62.54577
N         23.69048       55.63998       59.52233
C         24.73282       54.90152       60.20413
H         25.40996       55.61693       60.71479
H         24.34885       54.21490       60.97180
H         25.31887       54.32028       59.46149
H         24.00603       56.34018       58.83301
Ca        24.52756       59.61620       75.70188
O         25.08192       59.06870       73.04585
H         25.03701       58.12136       73.33115
H         24.16210       59.28468       72.74937
O         25.30325       56.81433       76.09336
H         25.60427       56.23316       76.83593
H         25.82250       56.50873       75.30826
O         24.05085       58.08196       78.86441
H         24.80272       58.03337       79.50690
H         23.23878       58.01634       79.42722
O         27.23212       59.38159       76.92886
H         27.69459       60.25665       76.91239
H         27.69150       58.84482       76.23526

Ca 1.0



