%chk=apoCaM-CA-Ng.loop3.water3.frame505.chk
%nprocshared=20
%mem=10GB
%nosave
#b3lyp/svp scf=(tight,noincore,xqc) Test 
#IOP(5/87=12) Density=Current Pop=(MK,readradii) iop(6/33=2) iop(6/42=6)

apoCaM-CA-Ng.loop3.water3.frame505 

   0  1 
C         65.77097       40.45200       59.82926
C         65.72604       40.24081       61.31429
O         64.66701       40.39948       61.90441
H         66.78905       40.26770       59.42450
H         65.06473       39.75436       59.33366
H         65.48362       41.49745       59.59266
N         66.85062       39.87669       61.98919
C         66.88236       39.65087       63.42879
C         66.50400       40.93288       64.15575
O         67.12757       41.96018       63.92523
C         68.28690       39.15747       63.83416
C         68.41352       38.71801       65.26953
O         69.49008       38.31753       65.68160
O         67.35983       38.74673       66.10449
H         67.72118       39.74730       61.44973
H         66.16465       38.83600       63.67363
H         69.02549       39.95458       63.61763
H         68.53564       38.27829       63.20691
N         65.46880       40.93650       65.04136
C         64.99685       42.12972       65.73926
C         66.10776       42.78693       66.53707
O         66.26017       43.99738       66.44472
C         63.79027       41.77058       66.63658
C         63.12212       43.02313       67.23567
C         61.81563       42.73669       67.99752
C         60.70995       42.15102       67.09820
N         59.43878       42.06931       67.81594
H         64.98408       40.04322       65.21992
H         64.62639       42.85492       64.97945
H         64.09117       41.06971       67.44630
H         63.05664       41.25860       65.98218
H         62.88813       43.74064       66.41905
H         63.83361       43.51633       67.93320
H         61.45595       43.70968       68.39886
H         62.00644       42.05670       68.85604
H         60.99270       41.13417       66.75338
H         60.57445       42.79930       66.20382
H         58.71809       41.64350       67.19143
H         59.53947       41.47375       68.66892
H         59.11963       43.02865       68.08432
N         66.96213       42.03821       67.28804
C         68.06697       42.61177       68.04993
C         69.40156       42.54724       67.32261
O         70.32021       43.21260       67.77875
C         68.16428       41.95154       69.44819
C         68.11386       40.42857       69.42894
O         68.95435       39.68866       68.67075
O         67.26666       39.85730       70.09536
H         66.85983       41.01484       67.25681
H         67.89615       43.70362       68.18750
H         67.30929       42.30857       70.06331
H         69.09452       42.29495       69.95157
N         69.60449       41.79163       66.20680
C         70.87576       41.70739       65.49090
C         72.03310       41.08303       66.26707
O         73.08424       40.90471       65.67132
H         68.81696       41.25776       65.82513
H         71.17401       42.71921       65.14061
H         70.72382       41.07744       64.59143
N         71.93915       40.75909       67.58857
C         73.01227       40.18288       68.39200
C         72.49382       38.92109       69.05599
O         71.33974       38.58316       68.86313
C         73.43758       41.19877       69.47827
C         74.24503       42.35659       68.93137
N         73.72841       43.24569       68.05236
O         75.39938       42.49661       69.30669
H         71.06825       40.93450       68.09396
H         73.89670       39.91211       67.77561
H         74.08764       40.68534       70.21716
H         72.54454       41.57038       70.02901
H         72.76002       43.17836       67.72644
H         74.30582       44.02215       67.69784
N         73.28121       38.16939       69.87798
C         72.74497       37.01934       70.58670
C         72.24932       35.94679       69.64846
O         72.43843       36.04373       68.44210
H         74.26178       38.43609       70.04190
H         71.89490       37.36472       71.21530
H         73.51533       36.58540       71.25938
N         71.57600       34.88129       70.15361
C         71.04559       33.82573       69.30651
C         70.03212       34.39820       68.27295
O         68.98552       35.05195       68.92682
C         70.51231       32.63852       70.16238
C         69.36195       32.92800       71.10292
C         69.61088       33.21245       72.45767
C         68.03072       32.84959       70.65849
C         68.55346       33.43919       73.34293
C         66.97345       33.06526       71.55002
C         67.23204       33.36625       72.89453
O         66.22306       33.57934       73.76363
H         71.44883       34.82655       71.17499
H         71.89757       33.40396       68.72690
H         71.37012       32.27433       70.76955
H         70.23867       31.77194       69.52233
H         70.62565       33.26060       72.83160
H         67.80808       32.60879       69.62665
H         68.76274       33.66413       74.38129
H         65.95431       32.99654       71.19532
H         65.29380       33.53358       73.49692
N         69.49803       33.30726       67.44484
C         68.89994       33.69448       66.15519
C         67.52376       34.33814       66.32771
O         67.43292       35.50834       66.67053
C         69.84331       34.54610       65.22784
C         69.13695       34.85674       63.87318
C         71.18291       33.82030       64.97977
C         69.94666       35.74883       62.92787
H         70.25449       32.61221       67.24370
H         68.73478       32.73446       65.61519
H         70.06193       35.51275       65.73205
H         68.18977       35.40108       64.07141
H         68.88494       33.91110       63.34489
H         71.86751       34.43514       64.36237
H         71.72563       33.63894       65.92801
H         71.01213       32.85029       64.46471
H         70.86496       35.24418       62.56912
H         69.33186       35.98879       62.03376
H         70.22516       36.69522       63.43484
N         66.41432       33.63689       65.95473
C         65.15836       34.27552       65.56915
C         64.12707       34.51271       66.66565
O         63.07699       35.02320       66.29794
C         64.51074       33.42759       64.45330
O         64.15184       32.16668       64.95364
H         66.56714       32.66700       65.63765
H         65.39334       35.26106       65.10668
H         65.24890       33.31429       63.62559
H         63.60767       33.93834       64.05299
H         63.93159       31.60594       64.16562
N         64.29358       34.19676       67.98811
C         63.20045       34.38486       68.95139
C         63.51562       35.48426       69.96158
O         64.30736       35.23933       70.85892
C         62.87275       33.06674       69.65711
H         65.19080       33.80768       68.31350
H         62.27919       34.65301       68.41318
H         62.59408       32.29435       68.90988
H         63.74841       32.70037       70.23291
H         62.02038       33.20870       70.35622
N         62.96312       36.73847       69.90339
C         62.03734       37.18594       68.86312
C         60.68517       36.49046       68.98641
O         60.42187       35.91736       70.03485
C         61.82283       38.70582       68.95967
H         63.27224       37.42510       70.61058
H         62.51820       36.96113       67.89022
H         61.14931       39.07597       68.16286
H         61.37809       38.97303       69.94206
H         62.78788       39.23968       68.85407
N         59.75902       36.45660       67.98061
C         59.93371       36.99652       66.63423
C         59.92788       35.87226       65.59160
O         60.14506       36.16491       64.42482
C         58.81998       38.04466       66.38828
C         58.93248       38.79767       65.04988
C         57.84462       39.82217       64.90642
O         56.67243       39.48063       64.91818
O         58.15713       41.11962       64.72863
H         58.86641       35.97573       68.17775
H         60.91037       37.50433       66.53458
H         58.87567       38.79907       67.20438
H         57.82937       37.54208       66.45036
H         58.82886       38.10405       64.19435
H         59.92298       39.29957       64.99148
N         59.72151       34.56192       65.92623
C         59.70526       33.48594       64.95367
H         59.87415       33.84230       63.91583
H         60.49715       32.74988       65.20417
H         58.71814       32.97832       64.98713
H         59.56219       34.28547       66.90383
Ca        68.90895       37.36853       68.64920
O         69.04463       37.37167       71.53370
H         68.36300       37.38700       72.25094
H         69.39575       38.29699       71.50079
O         65.53122       38.42403       68.23583
H         64.91662       38.55556       67.47230
H         65.08210       38.85678       69.00359
O         66.61007       35.49246       69.70908
H         66.30253       36.32864       69.28662
H         67.02481       35.77790       70.56072

Ca 1.0



