%chk=apoCaM-CA-Ng.loop4.water4.frame212.chk
%nprocshared=20
%mem=10GB
%nosave
#b3lyp/svp scf=(tight,noincore,xqc) Test 
#IOP(5/87=12) Density=Current Pop=(MK,readradii) iop(6/33=2) iop(6/42=6)

apoCaM-CA-Ng.loop4.water4.frame212 

   -3  1 
C         37.33197       48.31397       83.98338
C         38.69636       48.91957       84.08033
O         39.64693       48.25653       83.71454
H         36.70044       48.93047       83.31072
H         37.39608       47.28676       83.55961
H         36.87214       48.25866       84.98996
N         38.86606       50.19633       84.52670
C         40.15565       50.88053       84.57857
C         40.83256       50.91178       83.22308
O         41.93384       50.41385       83.08297
C         41.05148       50.45805       85.77575
C         41.28300       49.00515       86.15007
O         41.89930       48.08230       85.37673
O         40.97184       48.66349       87.28072
H         38.02608       50.73762       84.78192
H         39.96183       51.95754       84.79319
H         40.56769       50.91468       86.67080
H         42.03459       50.96810       85.67561
N         40.20963       51.56470       82.19751
C         40.71053       51.79711       80.84006
C         41.95198       52.69285       80.85747
O         41.82310       53.87282       80.56171
C         40.87589       50.48403       80.01902
C         41.22252       50.75689       78.52914
C         39.62118       49.59738       80.12718
C         40.16105       51.53244       77.73819
H         39.28277       51.97059       82.40402
H         39.90544       52.38636       80.34975
H         41.71193       49.89278       80.44941
H         41.38760       49.78186       78.02105
H         42.16671       51.33119       78.46708
H         39.44256       49.30385       81.18154
H         38.71597       50.12375       79.76271
H         39.75890       48.66328       79.54291
H         39.19693       50.98525       77.71154
H         40.00038       52.54626       78.15512
H         40.50904       51.66315       76.69330
N         43.17664       52.21440       81.21881
C         44.33043       53.06203       81.48830
C         45.20618       53.32362       80.26305
O         45.51217       54.48642       80.04061
C         45.14055       52.46970       82.66817
C         46.29398       53.34532       83.07431
O         46.09708       54.48787       83.45651
O         47.55157       52.86507       83.03150
H         43.27588       51.21595       81.42997
H         43.97100       54.04446       81.87467
H         45.53017       51.46589       82.41981
H         44.46781       52.35378       83.54625
N         45.71775       52.35618       79.44419
C         45.30955       50.96324       79.45936
C         46.12274       50.12380       78.48771
O         46.26044       50.55089       77.35015
H         46.38804       52.65822       78.71932
H         44.25300       50.91936       79.13912
H         45.35454       50.56801       80.46706
N         46.64544       48.88969       78.78363
C         46.45490       48.12462       80.01664
C         44.95215       47.99174       80.27469
O         44.47730       48.46387       81.29777
C         47.29844       48.72073       81.17817
C         47.38041       47.84274       82.40144
O         48.09924       48.25856       83.46095
O         46.83307       46.75315       82.44353
H         47.14738       48.40289       78.02392
H         46.88133       47.10951       79.85776
H         46.93788       49.71090       81.49791
H         48.33970       48.85339       80.81481
N         44.10407       47.44522       79.34981
C         44.51988       46.73636       78.15428
C         44.28474       47.53463       76.90074
O         43.71166       48.61530       76.94148
H         43.09611       47.53744       79.49494
H         44.00854       45.75123       78.10118
H         45.60147       46.51827       78.18876
N         44.84431       47.08294       75.74649
C         44.95721       47.89941       74.54655
C         43.66100       48.08032       73.75932
O         43.68190       48.86821       72.82581
C         46.11145       47.39057       73.63848
C         45.85913       46.07897       72.86677
C         45.71352       44.84997       73.72333
N         46.72258       44.40532       74.50643
O         44.66786       44.23143       73.69654
H         45.37717       46.20707       75.81197
H         45.28498       48.90809       74.88816
H         47.04218       47.30212       74.24181
H         46.29863       48.17400       72.87266
H         46.71370       45.90157       72.18011
H         44.94984       46.21257       72.24346
H         47.62495       44.89825       74.54069
H         46.59567       43.55650       75.07946
N         42.51343       47.39276       74.04766
C         41.26989       47.56075       73.27916
C         40.85285       46.28958       72.54317
O         39.86966       46.34619       71.81258
C         40.11784       48.07158       74.18554
C         40.43858       49.46096       74.74580
C         39.78154       47.10036       75.33015
H         42.51980       46.72022       74.82544
H         41.41572       48.31911       72.47868
H         39.20732       48.18104       73.55385
H         41.33487       49.43079       75.40036
H         40.62505       50.17532       73.91522
H         39.57420       49.83633       75.33251
H         40.63207       46.99352       76.03455
H         38.90956       47.47899       75.90400
H         39.51776       46.09917       74.92911
N         41.54994       45.12612       72.64965
C         41.23548       43.91215       71.90419
C         40.96939       42.74175       72.84729
O         39.96159       42.06908       72.69565
C         42.41986       43.56658       70.97308
C         42.74394       44.67965       70.00218
N         41.83997       45.09337       69.08322
O         43.84581       45.20600       70.03964
H         42.37962       45.10356       73.25300
H         40.33936       44.05106       71.25794
H         42.18475       42.64919       70.39069
H         43.32169       43.35593       71.58681
H         40.90909       44.65809       69.02068
H         42.07648       45.85042       68.42384
N         41.87326       42.42578       73.81934
C         41.84632       41.22833       74.64947
C         41.79111       41.55521       76.13801
O         42.44052       42.49155       76.58055
C         43.18221       40.48764       74.43060
C         43.36175       39.90214       73.05816
C         42.62855       38.76567       72.68297
C         44.30759       40.43815       72.16963
C         42.85494       38.15948       71.44460
C         44.52023       39.84062       70.92424
C         43.80539       38.69360       70.56200
O         44.04786       38.10788       69.37231
H         42.67951       43.03994       73.94672
H         41.00038       40.55570       74.38621
H         43.28813       39.64548       75.14112
H         44.00929       41.20016       74.65281
H         41.90772       38.32976       73.36409
H         44.88438       41.31360       72.44193
H         42.30147       37.26768       71.17897
H         45.25421       40.25980       70.24779
H         43.59904       37.29509       69.09895
N         41.18386       40.66657       76.98361
C         41.30006       40.65068       78.44573
C         40.62288       41.79620       79.18246
O         40.64118       41.75898       80.40582
C         42.76934       40.48168       78.89794
C         43.37252       39.16412       78.38815
C         44.77395       38.97929       78.89006
O         45.07776       37.91953       79.66365
O         45.64598       39.78019       78.59301
H         40.68551       39.86785       76.56191
H         40.75873       39.74529       78.80477
H         42.80095       40.44706       80.00927
H         43.38366       41.34545       78.56857
H         43.38715       39.14494       77.28407
H         42.74699       38.31482       78.74079
N         39.92727       42.78059       78.54975
C         39.10346       43.74573       79.27453
C         37.62712       43.45025       79.03399
O         36.79689       44.16764       79.57579
C         39.45829       45.18553       78.85035
C         40.89940       45.61380       79.17773
C         41.16587       45.82174       80.65053
O         41.11707       44.89131       81.43795
O         41.51745       47.05325       81.08055
H         39.88557       42.79713       77.52082
H         39.23962       43.65820       80.37234
H         38.76890       45.91393       79.33264
H         39.31281       45.25821       77.75081
H         41.06439       46.59024       78.67383
H         41.62780       44.89015       78.75452
N         37.21321       42.38909       78.27720
C         35.81563       42.07132       78.09348
H         35.29431       42.91656       77.59884
H         35.71729       41.16626       77.45557
H         35.34543       41.85991       79.07730
H         37.89075       41.75997       77.82486
Ca        42.13670       47.66990       83.16446
O         44.07508       45.95280       85.48760
H         43.69150       45.04161       85.54148
H         45.04533       45.80632       85.35636
O         43.98355       45.29102       82.51257
H         43.97747       44.34325       82.22973
H         44.61182       45.72559       81.88617
O         41.06939       45.20510       84.56491
H         40.49907       44.62568       85.12842
H         40.43602       45.64406       83.94401
O         44.72467       49.36151       84.30450
H         45.17922       49.75116       85.09287
H         45.09200       48.44497       84.23391

Ca 1.0



