%chk=apoCaM-CA-Ng.loop1.water6.frame646.chk
%nprocshared=20
%mem=10GB
%nosave
#b3lyp/svp scf=(tight,noincore,xqc) Test 
#IOP(5/87=12) Density=Current Pop=(MK,readradii) iop(6/33=2) iop(6/42=6)

apoCaM-CA-Ng.loop1.water6.frame646 

   0  1 
C        -22.97795       38.75767       36.33361
C        -24.42303       38.39785       36.16825
O        -24.99089       38.70893       35.13306
H        -22.38240       38.28180       35.52797
H        -22.86794       39.86088       36.27002
H        -22.58560       38.42187       37.31659
N        -25.09063       37.73625       37.15274
C        -26.50952       37.39729       37.05485
C        -27.39204       38.64468       36.89973
O        -26.92386       39.74993       37.13774
C        -26.93995       36.50511       38.24627
C        -26.65710       37.08046       39.61277
O        -27.03848       36.47820       40.60376
O        -26.02286       38.25905       39.76765
H        -24.55680       37.45172       37.98762
H        -26.64443       36.79624       36.12926
H        -26.40369       35.53391       38.18410
H        -28.02962       36.29988       38.16471
N        -28.66676       38.52802       36.41071
C        -29.53914       39.66461       36.10388
C        -30.81390       39.53722       36.92767
O        -31.87870       39.26504       36.39161
C        -29.81400       39.71472       34.57862
C        -30.45355       41.05515       34.15400
C        -30.73855       41.10501       32.64586
C        -31.26421       42.48894       32.22824
N        -31.58421       42.52447       30.80055
H        -29.02352       37.58488       36.19270
H        -29.03764       40.62330       36.36398
H        -30.44424       38.85132       34.27333
H        -28.84742       39.62836       34.03898
H        -29.74989       41.87650       34.41169
H        -31.40366       41.22608       34.70196
H        -31.49304       40.32767       32.39582
H        -29.80582       40.89433       32.07810
H        -30.48965       43.25717       32.44807
H        -32.17763       42.73991       32.81150
H        -32.35108       41.84537       30.58895
H        -31.90718       43.48588       30.54468
H        -30.73855       42.29061       30.23126
N        -30.73950       39.70820       38.27249
C        -31.83792       39.52543       39.22257
C        -32.18054       40.86305       39.88035
O        -31.81598       41.07622       41.02774
C        -31.45292       38.40224       40.21974
C        -30.17394       38.61710       40.98860
O        -29.66843       37.67717       41.57998
O        -29.53474       39.80137       40.95618
H        -29.81832       39.97391       38.64200
H        -32.75130       39.12913       38.73648
H        -31.30625       37.48799       39.60119
H        -32.28150       38.19832       40.93070
N        -32.89236       41.84132       39.24494
C        -33.57295       41.69277       37.96641
C        -33.10821       42.64563       36.89310
O        -33.70838       42.61391       35.82728
H        -33.03886       42.73291       39.74530
H        -34.65428       41.87790       38.15048
H        -33.50129       40.67916       37.55572
N        -32.09812       43.54254       37.08543
C        -31.74970       44.55628       36.09068
C        -30.25103       44.61792       35.79261
O        -29.47381       43.86819       36.36599
C        -32.30021       45.91819       36.58404
C        -31.68830       46.45298       37.85676
O        -30.69390       45.80531       38.49433
O        -32.09946       47.50637       38.31520
H        -31.62894       43.57520       38.00067
H        -32.26545       44.34794       35.12743
H        -33.39475       45.80248       36.74695
H        -32.17421       46.68689       35.79514
N        -29.78395       45.56588       34.93063
C        -28.37967       45.87354       34.70959
C        -27.67630       44.93550       33.76318
O        -28.16497       44.74538       32.65818
H        -30.46397       46.20052       34.48776
H        -27.85022       45.98989       35.67964
H        -28.33797       46.86128       34.20206
N        -26.46146       44.40156       34.08944
C        -25.64953       43.62697       33.14851
C        -24.31698       44.33112       32.90861
O        -23.96671       45.21798       33.67486
C        -25.41073       42.20535       33.70908
C        -26.73479       41.51631       34.04489
O        -24.71122       41.43113       32.76868
H        -26.07309       44.58738       35.02751
H        -26.17440       43.54991       32.17114
H        -24.81087       42.29725       34.64680
H        -24.27265       40.69301       33.26736
H        -27.28194       42.07991       34.82965
H        -27.36904       41.43515       33.13819
H        -26.54545       40.50191       34.44083
N        -23.50235       43.96857       31.87145
C        -22.16426       44.54123       31.68700
C        -22.21335       46.05032       31.37002
O        -21.18078       46.69459       31.48233
C        -21.31264       43.71479       30.65560
C        -21.33970       42.17543       30.92087
C        -19.84124       44.18303       30.60662
C        -20.89351       41.74241       32.32134
H        -23.83493       43.23251       31.23543
H        -21.64995       44.43738       32.66828
H        -21.74168       43.86378       29.64031
H        -20.69431       41.66816       30.17026
H        -22.35723       41.77056       30.75735
H        -19.35934       44.10071       31.60359
H        -19.26365       43.56595       29.88521
H        -19.75186       45.22829       30.25656
H        -19.84956       42.05053       32.52885
H        -21.56709       42.16092       33.09744
H        -20.94689       40.63523       32.39383
N        -23.37963       46.69632       31.05073
C        -23.49584       48.15479       30.94003
C        -24.07706       48.58801       29.59354
O        -25.16385       48.16200       29.23246
C        -24.33040       48.71341       32.12695
C        -25.71868       48.07572       32.30696
O        -23.60431       48.60802       33.32719
H        -24.24291       46.14703       30.94615
H        -22.49800       48.63559       31.03977
H        -24.47578       49.80060       31.94545
H        -23.40322       47.65126       33.48489
H        -26.23839       48.55651       33.16125
H        -26.34691       48.20496       31.40495
H        -25.63598       46.99380       32.53505
N        -23.37950       49.45867       28.80258
C        -23.82634       49.94256       27.49340
C        -22.62098       50.56898       26.79762
O        -22.04256       49.89840       25.95481
C        -25.07602       50.86470       27.60680
C        -25.49246       51.44844       26.25051
O        -24.83609       51.90638       28.51831
H        -22.45021       49.76212       29.13463
H        -24.09871       49.05008       26.88472
H        -25.91530       50.24451       27.99431
H        -25.71753       52.29477       28.76051
H        -24.69287       52.10115       25.83931
H        -25.70776       50.63466       25.52772
H        -26.40895       52.06529       26.37145
N        -22.12257       51.78829       27.16194
C        -20.76226       52.20121       26.82447
C        -20.04298       52.63578       28.09341
O        -20.67734       52.78863       29.12716
C        -20.69919       53.25768       25.69846
C        -21.32536       54.63280       25.99418
C        -21.00117       55.59471       24.82805
C        -21.50228       57.03497       25.02552
N        -22.95879       57.13805       24.94284
H        -22.65238       52.38157       27.81103
H        -20.20542       51.31962       26.43871
H        -21.17698       52.83576       24.78703
H        -19.62291       53.41394       25.46525
H        -20.88180       55.05039       26.92371
H        -22.42109       54.52192       26.13384
H        -21.39830       55.19587       23.86866
H        -19.89349       55.65284       24.74037
H        -21.06497       57.66408       24.21707
H        -21.13933       57.43517       25.99773
H        -23.28430       56.81373       24.00275
H        -23.41651       56.57674       25.69423
H        -23.23175       58.14126       25.05838
N        -18.69612       52.83741       28.09088
C        -17.98120       53.28251       29.28142
C        -18.18057       52.32918       30.46217
O        -18.65650       52.80513       31.48385
C        -16.49206       53.54786       28.96968
C        -15.78905       54.26238       30.13387
C        -14.39037       54.65471       29.75734
O        -14.03982       55.95534       29.73824
O        -13.56617       53.80283       29.46661
H        -18.17377       52.68646       27.21566
H        -18.41019       54.27229       29.56066
H        -16.44864       54.22187       28.08562
H        -15.95011       52.61422       28.71546
H        -15.76075       53.60950       31.03238
H        -16.35604       55.18527       30.38682
N        -17.88856       50.99370       30.45409
C        -17.37824       50.23055       29.33396
H        -16.40967       49.76874       29.61732
H        -18.09874       49.42050       29.09169
H        -17.23005       50.82847       28.42132
H        -18.06721       50.45797       31.31822
Ca       -27.33085       39.76699       40.71365
O        -24.65282       40.72306       41.96467
H        -24.41856       39.78101       42.15999
H        -23.93090       41.25174       42.38807
O        -29.03684       42.35781       39.29872
H        -28.88422       42.29268       38.32365
H        -29.55200       43.19403       39.41924
O        -26.26766       43.38099       40.10782
H        -26.71767       43.80708       39.33557
H        -25.37765       43.81308       40.14321
O        -26.95501       38.94606       43.55312
H        -27.88216       38.85798       43.21788
H        -26.43223       38.30780       43.00535
O        -24.35436       41.22353       38.76251
H        -24.60634       41.95050       38.13910
H        -23.50291       41.52757       39.16658
O        -28.38061       42.07576       42.57934
H        -29.11651       42.23304       41.93660
H        -28.76465       41.44895       43.24248

Ca 1.0



