%chk=apoCaM-CA-Ng.loop4.water2.frame95.chk
%nprocshared=20
%mem=10GB
%nosave
#b3lyp/svp scf=(tight,noincore,xqc) Test 
#IOP(5/87=12) Density=Current Pop=(MK,readradii) iop(6/33=2) iop(6/42=6)

apoCaM-CA-Ng.loop4.water2.frame95 

   -3  1 
C         23.43292       47.19917       79.82886
C         22.18532       48.00412       80.00032
O         21.83548       48.27287       81.13309
H         24.26859       47.73264       80.33219
H         23.30307       46.20404       80.30132
H         23.68936       47.07288       78.75798
N         21.48649       48.46388       78.92360
C         20.34367       49.36522       79.01161
C         20.52582       50.48524       80.00974
O         19.72679       50.59975       80.92100
C         18.97794       48.65307       79.09117
C         18.75940       47.59330       80.14707
O         18.87664       47.77434       81.48957
O         18.36937       46.50188       79.76078
H         21.83321       48.23581       77.98000
H         20.27355       49.90372       78.03813
H         18.80684       48.17108       78.09842
H         18.18197       49.42775       79.18035
N         21.52240       51.39888       79.81493
C         21.65944       52.69274       80.48896
C         20.50263       53.59782       80.05776
O         20.75271       54.50452       79.27516
C         21.91916       52.58205       82.01871
C         21.96092       53.95921       82.73508
C         23.21865       51.79940       82.28663
C         23.04644       54.93165       82.28223
H         22.18566       51.21330       79.04719
H         22.57171       53.16449       80.05906
H         21.09160       52.02015       82.48742
H         22.12371       53.78698       83.81572
H         20.98116       54.46240       82.61598
H         24.08213       52.28092       81.78045
H         23.43199       51.75610       83.37664
H         23.13504       50.75893       81.91033
H         22.91529       55.20936       81.21802
H         22.96752       55.85549       82.89589
H         24.05581       54.50347       82.44303
N         19.21450       53.39260       80.45774
C         18.08253       54.07848       79.85475
C         17.76888       55.39318       80.55958
O         17.68078       56.38975       79.85675
C         16.84787       53.14092       79.77001
C         15.69415       53.81365       79.08030
O         15.72943       54.02035       77.87798
O         14.62834       54.22111       79.79640
H         19.00182       52.67046       81.14848
H         18.32122       54.29618       78.78669
H         16.50450       52.82005       80.76338
H         17.09641       52.20369       79.22400
N         17.52283       55.52293       81.89936
C         17.67786       54.46188       82.88782
C         17.01853       54.78382       84.22224
O         16.53574       55.89389       84.38888
H         17.22184       56.45549       82.21822
H         18.75865       54.26718       83.03218
H         17.21086       53.56081       82.52253
N         16.93475       53.88953       85.25648
C         17.37629       52.49712       85.26515
C         18.82900       52.37190       84.83981
O         19.09040       51.70199       83.85234
C         16.39722       51.60233       84.45505
C         16.73587       50.14049       84.56575
O         16.72971       49.53248       85.76755
O         17.00511       49.49714       83.56327
H         16.50654       54.22780       86.13268
H         17.30072       52.11958       86.31068
H         16.37907       51.87081       83.38687
H         15.36818       51.73741       84.85048
N         19.86093       52.93816       85.52750
C         19.74533       53.67846       86.77091
C         20.59094       54.92819       86.79461
O         21.21156       55.29190       85.80599
H         20.80674       52.74132       85.18767
H         20.08520       53.02368       87.59617
H         18.70309       53.98001       86.98287
N         20.60582       55.66522       87.93647
C         21.19665       56.99448       88.03154
C         22.72242       57.01799       88.03185
O         23.26992       58.11166       87.98924
C         20.59910       57.74651       89.25122
C         19.04870       57.78630       89.22517
C         18.51847       58.25931       87.89287
N         17.76173       57.43990       87.12207
O         18.80128       59.37782       87.49174
H         20.05334       55.30563       88.72803
H         20.88677       57.56167       87.12826
H         20.97995       58.79041       89.24939
H         20.91777       57.26267       90.20053
H         18.67531       58.44382       90.03809
H         18.64107       56.77578       89.43570
H         17.52224       56.48593       87.43222
H         17.42528       57.75307       86.19998
N         23.47636       55.87930       88.06735
C         24.94396       55.88045       87.99568
C         25.58199       55.47860       89.32039
O         26.78673       55.63959       89.46474
C         25.44039       54.97817       86.83339
C         24.86320       55.44516       85.49124
C         25.09042       53.49812       87.06113
H         22.99180       54.97834       88.16058
H         25.30230       56.91640       87.79993
H         26.54843       55.05971       86.77023
H         23.75962       55.34162       85.47911
H         25.12493       56.50773       85.30554
H         25.27806       54.83152       84.66406
H         25.45446       52.87814       86.21593
H         25.56167       53.12056       87.99313
H         23.99622       53.34894       87.13688
N         24.82011       55.01651       90.34972
C         25.30541       54.79464       91.70173
C         24.88934       53.43551       92.28489
O         25.64849       52.92169       93.09538
C         24.86710       55.98304       92.59420
C         23.46621       56.50076       92.32988
N         23.26015       57.82217       92.09686
O         22.51695       55.73324       92.32402
H         23.81183       54.91740       90.20532
H         26.42007       54.80540       91.73728
H         25.56310       56.82903       92.39258
H         24.98841       55.71259       93.66237
H         24.03897       58.49746       92.12969
H         22.31392       58.18601       91.91329
N         23.69238       52.83058       92.00802
C         23.26754       51.56212       92.61308
C         22.63849       50.62372       91.58297
O         21.91642       51.07875       90.70724
C         22.19680       51.82604       93.68570
C         22.70651       52.53370       94.91964
C         22.30285       53.84769       95.19902
C         23.53678       51.86246       95.83790
C         22.71327       54.48030       96.37606
C         23.93241       52.49169       97.02456
C         23.51733       53.80307       97.29849
O         23.87310       54.41705       98.44555
H         23.02027       53.30431       91.39087
H         24.11334       51.04081       93.11485
H         21.77141       50.86036       94.04022
H         21.36833       52.39803       93.21599
H         21.66410       54.38088       94.50825
H         23.85004       50.84175       95.65448
H         22.39015       55.49322       96.57890
H         24.54888       51.95598       97.73672
H         24.40194       53.97517       99.12530
N         22.75753       49.27185       91.74688
C         22.07208       48.23666       90.96391
C         22.47920       48.14665       89.49468
O         21.96485       47.25720       88.82913
C         20.52653       48.33866       91.03975
C         19.94385       48.24918       92.45447
C         18.44734       48.09655       92.37674
O         17.75875       48.97426       91.88046
O         17.86325       46.96758       92.82404
H         23.33558       48.93743       92.53378
H         22.34924       47.25576       91.41481
H         20.11870       47.46588       90.48080
H         20.16197       49.25966       90.53756
H         20.20240       49.15090       93.04914
H         20.35841       47.35363       92.96452
N         23.39724       48.96888       88.91332
C         23.77645       48.85406       87.50347
C         25.18878       48.31705       87.35623
O         25.62621       48.16887       86.22294
C         23.68334       50.23181       86.81659
C         22.26533       50.80949       86.75824
C         21.33035       50.03780       85.85175
O         21.52734       50.01645       84.51406
O         20.35410       49.47769       86.32232
H         23.88189       49.67635       89.48321
H         23.11808       48.14035       86.96156
H         24.08239       50.18738       85.77964
H         24.32784       50.92484       87.39702
H         22.34640       51.84443       86.37723
H         21.85318       50.86387       87.78724
N         25.95941       47.98612       88.43347
C         27.31335       47.48843       88.31181
H         27.99921       48.17782       88.84576
H         27.37815       46.48063       88.77125
H         27.64699       47.41556       87.25544
H         25.59400       48.08464       89.39079
Ca        20.16847       48.88351       83.05178
O         21.41496       46.39314       83.50806
H         22.37244       46.61256       83.38594
H         21.39600       45.74049       84.25106
O         18.44555       46.81130       84.32906
H         18.92005       46.31526       85.04105
H         17.76928       47.34340       84.81480

Ca 1.0



