%chk=apoCaM-CA-Ng.loop4.water2.frame30.chk
%nprocshared=20
%mem=10GB
%nosave
#b3lyp/svp scf=(tight,noincore,xqc) Test 
#IOP(5/87=12) Density=Current Pop=(MK,readradii) iop(6/33=2) iop(6/42=6)

apoCaM-CA-Ng.loop4.water2.frame30 

   -3  1 
C         62.84775       63.25130       40.08612
C         61.64582       64.02936       39.64363
O         60.54140       63.56286       39.87591
H         63.79004       63.78481       39.84459
H         62.79792       63.10059       41.18584
H         62.85568       62.26086       39.58538
N         61.78406       65.24425       39.03257
C         60.66949       66.09488       38.62417
C         59.80688       66.43023       39.82804
O         58.64556       66.07067       39.86524
C         59.94182       65.56066       37.35748
C         59.32674       64.18836       37.42581
O         58.30280       63.92920       38.25853
O         59.73018       63.30611       36.68423
H         62.73495       65.61801       38.89248
H         61.08591       67.06945       38.28133
H         60.69585       65.55230       36.53817
H         59.15019       66.28439       37.06441
N         60.37376       67.12516       40.86039
C         59.75908       67.54764       42.12304
C         58.69151       68.62852       41.94020
O         58.93557       69.75042       42.36350
C         59.28243       66.35334       42.99631
C         58.73901       66.81253       44.37956
C         60.40253       65.31323       43.18150
C         59.73043       67.61014       45.23578
H         61.36961       67.37488       40.75174
H         60.58525       68.03348       42.68743
H         58.45603       65.83607       42.47375
H         58.41651       65.91513       44.95084
H         57.84460       67.45051       44.23798
H         61.29587       65.75407       43.66793
H         60.03813       64.46521       43.79826
H         60.71607       64.89994       42.20339
H         60.65372       67.03074       45.43080
H         60.00355       68.56943       44.75355
H         59.25632       67.85936       46.20775
N         57.49446       68.38651       41.33479
C         56.49374       69.42136       41.11410
C         55.80515       69.85963       42.41588
O         55.90192       71.04648       42.69595
C         55.53472       69.02505       39.97295
C         56.26147       68.94708       38.65301
O         56.88280       70.03513       38.15733
O         56.27796       67.90694       38.01608
H         57.28318       67.44948       40.98470
H         57.00989       70.32557       40.71279
H         54.74367       69.79907       39.86923
H         55.07471       68.04329       40.16731
N         55.13788       69.05572       43.30921
C         54.95529       67.61362       43.24957
C         53.87480       67.17787       42.27974
O         53.26675       68.03742       41.65782
H         54.79505       69.50903       44.17124
H         54.62670       67.25932       44.25027
H         55.93242       67.15866       43.04269
N         53.52515       65.86627       42.08592
C         54.02651       64.71188       42.84397
C         55.53121       64.57857       42.83085
O         56.15450       65.10960       41.92421
C         53.34029       63.40270       42.35134
C         53.38021       63.14098       40.85265
O         52.32583       63.15324       40.23733
O         54.50628       62.82708       40.16962
H         52.79554       65.69070       41.37758
H         53.74262       64.88359       43.90468
H         52.26917       63.50054       42.63536
H         53.72584       62.50312       42.86699
N         56.22219       63.91947       43.81602
C         55.63846       63.26026       44.98395
C         55.52453       64.17893       46.17849
O         55.86252       65.35011       46.07397
H         57.25103       63.90711       43.75549
H         56.30499       62.41738       45.27083
H         54.65185       62.81982       44.76649
N         55.07494       63.68820       47.37627
C         55.05831       64.49597       48.59541
C         56.39281       64.43137       49.32861
O         56.56598       65.16465       50.29270
C         53.86595       64.13801       49.51379
C         53.99122       62.78346       50.24545
C         52.82241       62.51919       51.17237
N         52.82336       61.42638       51.96878
O         51.87592       63.29203       51.22051
H         54.85456       62.68297       47.44207
H         54.90167       65.55689       48.29784
H         52.92913       64.16697       48.91483
H         53.79464       64.92595       50.29684
H         54.91234       62.79891       50.86691
H         54.06965       61.94723       49.51969
H         53.61482       60.77059       51.96110
H         52.03466       61.23813       52.60537
N         57.39183       63.60240       48.90528
C         58.73184       63.56669       49.47856
C         59.12036       62.17661       49.96371
O         60.25944       62.01872       50.38147
C         59.75816       64.05621       48.41726
C         59.49618       65.51812       48.04847
C         59.77595       63.18832       47.14283
H         57.22151       62.98440       48.10163
H         58.81017       64.24813       50.35519
H         60.77266       64.01473       48.87214
H         59.52821       66.15799       48.95547
H         60.28930       65.86398       47.35939
H         58.50635       65.63843       47.55797
H         58.81110       63.24414       46.59720
H         60.56931       63.54203       46.45177
H         59.98650       62.12641       47.38952
N         58.24890       61.12565       49.95110
C         58.64426       59.77403       50.32491
C         58.29306       58.76344       49.23625
O         59.17769       58.02529       48.82319
C         58.12229       59.37379       51.73392
C         56.64621       59.45413       52.04799
N         56.20300       59.03785       53.25754
O         55.84874       59.90590       51.24743
H         57.27047       61.28220       49.67709
H         59.74952       59.71420       50.45057
H         58.62779       60.02617       52.47980
H         58.45877       58.33073       51.92527
H         56.85863       58.65805       53.95655
H         55.20167       59.08980       53.49694
N         57.01922       58.61817       48.77397
C         56.60124       57.47790       47.96948
C         57.13684       57.48473       46.54274
O         56.82219       58.38859       45.78151
C         55.05866       57.36338       47.90953
C         54.38604       57.42058       49.26572
C         53.35274       58.34791       49.48582
C         54.76584       56.56190       50.31396
C         52.71046       58.41360       50.72322
C         54.13394       56.64541       51.55973
C         53.10201       57.57188       51.76691
O         52.48150       57.66352       52.96038
H         56.29323       59.26019       49.10464
H         56.95075       56.56389       48.49755
H         54.80424       56.39074       47.43716
H         54.64942       58.17073       47.26274
H         53.03345       59.01647       48.69600
H         55.55657       55.83658       50.17821
H         51.90881       59.12532       50.87071
H         54.44578       55.98920       52.36247
H         52.72740       57.10744       53.71316
N         57.85068       56.40964       46.09838
C         58.18649       56.09028       44.70888
C         59.21332       56.97653       44.01839
O         59.63794       56.57674       42.94090
C         56.91945       55.99126       43.82221
C         55.86101       55.03224       44.38505
C         54.68678       54.92868       43.45309
O         53.46074       55.30443       43.86466
O         54.83606       54.49600       42.32106
H         58.07476       55.67272       46.78476
H         58.65339       55.07890       44.73550
H         57.22125       55.62852       42.81437
H         56.46366       56.99744       43.69594
H         55.50729       55.40569       45.36796
H         56.29749       54.02099       44.52690
N         59.65805       58.17195       44.50378
C         60.61985       58.96858       43.74029
C         62.03175       58.40891       43.84132
O         62.90468       58.91618       43.14906
C         60.63123       60.44246       44.18815
C         59.27287       61.15164       44.10212
C         58.66554       61.20954       42.72924
O         58.46144       62.40650       42.15773
O         58.23734       60.20237       42.18890
H         59.27732       58.54656       45.38162
H         60.32069       58.95663       42.66948
H         61.35145       61.00987       43.55680
H         60.97866       60.49827       45.24286
H         59.42850       62.19250       44.45098
H         58.53721       60.67989       44.78590
N         62.35033       57.39224       44.69280
C         63.70178       56.89149       44.81002
H         64.38095       57.71079       45.12996
H         63.74080       56.08292       45.57035
H         64.04270       56.48480       43.83481
H         61.63300       56.96698       45.29671
Ca        56.64224       62.68224       40.87574
O         57.05595       60.99648       38.20493
H         56.19793       60.55313       38.42352
H         57.73956       60.46573       38.68613
O         55.46318       65.08902       38.50261
H         54.66075       65.42943       38.97145
H         56.22105       65.45963       39.01913

Ca 1.0



