%chk=apoCaM-CA-Ng.loop2.water4.frame417.chk
%nprocshared=20
%mem=10GB
%nosave
#b3lyp/svp scf=(tight,noincore,xqc) Test 
#IOP(5/87=12) Density=Current Pop=(MK,readradii) iop(6/33=2) iop(6/42=6)

apoCaM-CA-Ng.loop2.water4.frame417 

   -2  1 
C         92.56293      103.72893       82.36172
C         92.40675      104.70462       81.23292
O         93.19383      104.66215       80.29799
H         92.70628      104.27641       83.31466
H         91.65379      103.09867       82.43957
H         93.44493      103.07279       82.19803
N         91.42162      105.64617       81.27674
C         91.23551      106.65974       80.24523
C         91.72531      107.97134       80.81213
O         91.20005      108.42785       81.81916
C         89.75931      106.70943       79.80993
C         89.47848      107.68511       78.69429
O         90.36769      108.35756       78.19505
O         88.22020      107.81003       78.23289
H         90.82001      105.68604       82.11487
H         91.84588      106.40464       79.35094
H         89.12709      106.97632       80.68472
H         89.45938      105.69830       79.45983
N         92.82341      108.56920       80.26706
C         93.54284      109.65117       80.92804
C         93.95617      109.16207       82.29909
O         93.72341      109.84602       83.28494
C         94.79156      110.02739       80.12060
H         93.23654      108.15777       79.41534
H         92.90186      110.55650       81.01277
H         94.49591      110.38174       79.11051
H         95.34540      110.84380       80.63169
H         95.47115      109.15489       80.00617
N         94.48381      107.90879       82.41616
C         94.79720      107.23496       83.66253
C         95.97395      107.90650       84.33427
O         95.91775      108.23502       85.51123
C         93.52065      107.09746       84.53081
C         93.70952      106.17472       85.69291
O         93.50474      106.61363       86.94978
O         94.02141      105.01177       85.49866
H         94.63022      107.35629       81.55685
H         95.13497      106.20863       83.39164
H         92.70560      106.67435       83.90517
H         93.18512      108.08890       84.89967
N         97.09249      108.15769       83.59756
C         98.28106      108.76829       84.15099
C         99.05083      107.76012       84.95577
O         99.24610      107.95929       86.14733
H         97.09186      107.93649       82.59012
H         98.00768      109.67372       84.73516
H         98.94924      109.09039       83.32267
N         99.57395      106.66575       84.33002
C        100.41283      105.67876       85.01310
C        101.14918      104.79773       83.99435
O        100.79272      104.81774       82.82165
C         99.51985      104.83770       85.96364
C        100.20580      104.10165       87.08928
N         99.46171      103.35006       87.92877
O        101.40367      104.21046       87.28868
H         99.41387      106.59778       83.31306
H        101.17714      106.25830       85.57657
H         98.92033      104.12826       85.34891
H         98.80526      105.50768       86.47536
H         98.44751      103.27830       87.78508
H         99.89176      102.85098       88.72116
N        102.22737      104.04089       84.34597
C        102.96936      103.23422       83.38845
C        103.05338      101.79106       83.80711
O        102.60099      101.43481       84.88871
H        102.58004      104.06607       85.30971
H        104.00402      103.63115       83.30570
H        102.50900      103.27390       82.37890
N        103.65014      100.89271       82.97401
C        103.86120       99.49330       83.33431
C        102.56601       98.73412       83.62937
O        102.66694       97.65443       84.19379
C        104.71462       98.74483       82.27042
C        104.01707       98.60237       80.90503
O        105.97699       99.35412       82.13062
H        104.00830      101.24552       82.07386
H        104.45109       99.50102       84.27892
H        104.89951       97.71194       82.63756
H        105.89033      100.13594       81.52545
H        104.67384       98.04866       80.20164
H        103.08080       98.02604       81.01527
H        103.78031       99.59117       80.45970
N        101.32936       99.22495       83.30378
C        100.07535       98.56310       83.66651
C         99.28881       99.49986       84.56097
O         99.02701      100.62704       84.16236
C         99.23222       98.18652       82.41789
C        100.00449       97.30940       81.40211
C         97.91890       97.49369       82.84155
C        100.52917       95.97513       81.94539
H        101.25876      100.11713       82.79409
H        100.27700       97.62425       84.22543
H         98.95694       99.12164       81.88058
H        100.85980       97.89176       81.01079
H         99.33687       97.09649       80.53936
H         97.30466       98.16223       83.48095
H         97.31019       97.23945       81.94930
H         98.12016       96.56731       83.41917
H         99.70440       95.33513       82.31709
H        101.04909       95.42913       81.13085
H        101.26120       96.13163       82.75954
N         98.90052       99.09731       85.80229
C         98.24175       99.98961       86.74979
C         98.37330       99.40500       88.14924
O         97.39848       99.30213       88.87645
C         96.77806      100.26732       86.30006
C         96.05697      101.31097       87.11149
O         94.83337      101.72234       86.73750
O         96.57731      101.82782       88.08413
H         99.15791       98.14469       86.10484
H         98.81992      100.93828       86.76479
H         96.19105       99.32248       86.31045
H         96.79010      100.64356       85.25685
N         99.59607       98.94983       88.55246
C         99.88221       98.29593       89.82529
C         98.81869       97.26464       90.19781
O         98.56123       96.37525       89.39666
C        101.23443       97.53887       89.70792
C        101.49141       96.67924       90.92508
C        101.88878       97.24695       92.14413
C        101.26059       95.29247       90.85301
C        102.04547       96.43837       93.27572
C        101.40395       94.49250       91.98676
C        101.79604       95.06436       93.19827
H        100.37040       99.01245       87.87262
H         99.96689       99.06884       90.61341
H        102.08938       98.22195       89.51281
H        101.15031       96.87267       88.81918
H        102.06481       98.31261       92.21919
H        100.93353       94.83480       89.92694
H        102.34727       96.87813       94.21670
H        101.19883       93.43131       91.92606
H        101.90095       94.44221       94.07710
N         98.23098       97.25242       91.43686
C         97.38783       96.16431       91.89897
C         95.96716       96.28674       91.38875
O         95.19680       95.35470       91.57247
C         97.46128       96.30618       93.42315
C         97.49456       97.81467       93.59020
C         98.46893       98.22369       92.48961
H         97.80755       95.17738       91.60116
H         96.66965       95.77297       93.99075
H         98.45343       95.92581       93.76099
H         96.48313       98.20148       93.33091
H         97.76448       98.19015       94.59970
H         98.25738       99.26912       92.17476
H         99.51630       98.13038       92.83440
N         95.53242       97.42692       90.78695
C         94.17935       97.59669       90.29454
C         93.96647       96.69387       89.09713
O         93.03135       95.90577       89.09987
C         93.94018       99.08349       89.96977
C         92.45594       99.39607       89.73691
C         92.19991      100.87455       89.64867
O         93.20440      101.76071       89.78442
O         91.05976      101.28094       89.49710
H         96.17059       98.22964       90.71764
H         93.47151       97.33981       91.11515
H         94.56027       99.41443       89.10678
H         94.25688       99.66257       90.86684
H         91.86696       99.01841       90.60113
H         92.10320       98.89362       88.81197
N         94.84384       96.72073       88.05445
C         94.72221       95.83849       86.91486
H         93.77740       96.04673       86.37178
H         95.57768       95.99546       86.22268
H         94.73505       94.77896       87.25072
H         95.64927       97.36369       88.08452
Ca        94.02217      103.51691       87.83996
O         93.05954      105.00010       90.23476
H         93.20763      104.35391       90.97022
H         92.30588      105.56233       90.54369
O         91.27138      103.22287       86.54565
H         91.54664      102.64205       87.29754
H         91.16370      102.59992       85.78430
O         96.27890      105.71350       87.62227
H         97.06865      106.16583       88.01066
H         96.42231      105.75528       86.64386
O         96.29572      104.16384       90.19610
H         97.23557      104.43160       90.03633
H         96.34309      103.19356       90.38608

Ca 1.0



