%chk=apoCaM-CA-Ng.loop1.water5.frame366.chk
%nprocshared=20
%mem=10GB
%nosave
#b3lyp/svp scf=(tight,noincore,xqc) Test 
#IOP(5/87=12) Density=Current Pop=(MK,readradii) iop(6/33=2) iop(6/42=6)

apoCaM-CA-Ng.loop1.water5.frame366 

   0  1 
C         26.02727       91.68427       33.22796
C         26.31943       91.15025       31.85633
O         26.94244       91.83544       31.05795
H         24.92993       91.71379       33.39308
H         26.48751       91.01735       33.98888
H         26.44163       92.70624       33.35495
N         25.90970       89.89669       31.52680
C         26.21309       89.26023       30.24940
C         25.32417       89.75877       29.10057
O         25.41738       89.17945       28.03173
C         26.04806       87.72390       30.36343
C         26.93259       87.08618       31.40530
O         27.78338       86.27761       31.06855
O         26.76974       87.36207       32.71283
H         25.42003       89.35061       32.25196
H         27.28373       89.42470       30.00029
H         26.34560       87.28513       29.38921
H         24.98777       87.46061       30.57030
N         24.43968       90.79428       29.22216
C         23.43870       91.12768       28.20148
C         23.79435       92.39075       27.42770
O         24.07599       93.38719       28.07894
C         22.08193       91.39145       28.90128
C         21.52196       90.19947       29.68943
C         21.00005       89.08514       28.77563
C         20.44165       87.92150       29.60336
N         19.80825       86.92075       28.74416
H         24.40885       91.33205       30.09874
H         23.32055       90.29037       27.50513
H         21.31965       91.72081       28.15983
H         22.22586       92.23023       29.61907
H         20.65890       90.56843       30.28684
H         22.28809       89.81622       30.39731
H         21.81003       88.70164       28.12380
H         20.19216       89.50426       28.13593
H         19.68540       88.29599       30.32818
H         21.27391       87.45778       30.17856
H         20.45724       86.60414       27.99168
H         19.53301       86.09597       29.32430
H         18.95254       87.32706       28.30174
N         23.72540       92.51031       26.05741
C         23.39820       91.47812       25.06438
C         22.04111       90.82734       25.30693
O         21.98958       89.65115       25.63856
C         24.55535       90.47957       24.87701
C         25.79324       91.15876       24.34519
O         25.79741       92.49252       24.13224
O         26.78202       90.49639       24.08029
H         23.91014       93.44929       25.67048
H         23.32788       91.94925       24.06034
H         24.24938       89.72342       24.12189
H         24.78678       89.96401       25.81876
N         20.87158       91.49125       25.08710
C         20.82316       92.82292       24.49805
C         19.41714       93.27285       24.15219
O         18.46100       92.59321       24.49787
H         19.99642       90.97549       25.26574
H         21.36040       92.77252       23.52698
H         21.31377       93.56424       25.16323
N         19.18398       94.37954       23.38951
C         20.21539       95.26880       22.86184
C         20.40556       95.01439       21.38133
O         19.42678       94.90333       20.65484
C         19.90695       96.75329       23.15460
C         18.66615       97.29219       22.48761
O         17.44774       96.82129       22.81222
O         18.75890       98.19457       21.67060
H         18.20813       94.55304       23.10910
H         21.18957       95.08160       23.35868
H         20.77982       97.34803       22.80113
H         19.82176       96.90465       24.25167
N         21.66243       94.93449       20.86041
C         21.91499       94.64678       19.46313
C         21.74655       93.17480       19.20641
O         20.90251       92.78347       18.41304
H         22.47500       95.11605       21.46912
H         22.97241       94.89066       19.22015
H         21.26770       95.27821       18.81589
N         22.58260       92.29861       19.83060
C         22.55642       90.85632       19.60258
C         21.31007       90.24427       20.23677
O         20.57383       90.94469       20.91876
C         23.88274       90.22523       20.12579
C         25.08866       90.80834       19.36588
O         23.88344       88.83499       19.93749
H         23.30173       92.69175       20.45805
H         22.51503       90.67204       18.50571
H         23.97383       90.45185       21.21470
H         24.60634       88.46502       20.50960
H         25.16096       91.90723       19.48404
H         26.03310       90.36475       19.74410
H         25.00200       90.58196       18.28094
N         21.00267       88.93236       20.02529
C         19.81353       88.27647       20.56307
C         20.21193       87.18579       21.55983
O         19.36568       86.38000       21.92558
C         18.92318       87.74766       19.38596
C         19.52949       86.51621       18.65887
C         18.62563       88.89723       18.40033
C         18.63170       85.94536       17.55689
H         21.62705       88.36192       19.43993
H         19.18061       88.99983       21.12281
H         17.95472       87.42121       19.82757
H         19.65574       85.70524       19.39843
H         20.52201       86.75171       18.22314
H         19.55437       89.22224       17.88246
H         17.88877       88.59190       17.63097
H         18.19484       89.76712       18.93840
H         19.08322       85.01199       17.15873
H         17.62445       85.70482       17.95953
H         18.53307       86.65419       16.71021
N         21.47832       87.12966       22.07517
C         21.97645       86.05892       22.93708
C         23.19446       86.51465       23.74327
O         24.03689       87.24596       23.23997
C         22.31399       84.78798       22.11881
C         23.25392       85.07798       20.93071
O         21.13976       84.13905       21.69609
H         22.13531       87.88771       21.84466
H         21.19753       85.79616       23.68863
H         22.83278       84.07155       22.79254
H         20.85505       84.52483       20.83181
H         22.77090       85.77499       20.21062
H         24.20436       85.53251       21.27577
H         23.48708       84.13409       20.39652
N         23.32278       86.10590       25.03640
C         24.34805       86.58014       25.96149
C         25.78206       86.32687       25.51278
O         26.12424       85.20749       25.16057
C         24.14348       85.98036       27.37973
C         24.36833       84.46333       27.48510
O         22.85548       86.29254       27.82780
H         22.60589       85.46125       25.40362
H         24.20275       87.67490       26.08054
H         24.87616       86.47655       28.04136
H         22.84882       86.15000       28.81051
H         25.41406       84.19302       27.23897
H         24.19826       84.13800       28.53335
H         23.67431       83.90705       26.82360
N         26.70159       87.32925       25.63564
C         28.14706       87.14696       25.51671
C         28.83535       88.49629       25.69057
O         29.52572       88.93240       24.78106
C         28.63892       86.16342       26.62002
C         30.16222       85.95597       26.70508
C         30.74800       85.23906       25.48342
C         32.24581       84.96371       25.68990
N         32.80559       84.22021       24.56232
H         26.36011       88.26043       25.90656
H         28.38538       86.74244       24.50857
H         28.16518       85.16840       26.49739
H         28.30983       86.54984       27.60843
H         30.35429       85.32137       27.59858
H         30.67748       86.92756       26.86770
H         30.60692       85.85678       24.57118
H         30.22030       84.26968       25.34898
H         32.38925       84.36730       26.61914
H         32.79112       85.92691       25.80670
H         32.70414       84.77175       23.67996
H         33.82110       84.04407       24.73960
H         32.31795       83.29995       24.46354
N         28.68686       89.20044       26.85226
C         29.30843       90.48907       27.12548
C         30.25211       90.33880       28.29990
O         29.81934       89.93905       29.37267
C         28.20935       91.53437       27.42787
C         28.74772       92.91851       27.83607
C         29.60146       93.54976       26.77609
O         30.88691       93.85391       27.03683
O         29.13238       93.80711       25.68138
H         28.10208       88.79811       27.59965
H         29.88554       90.84229       26.24508
H         27.57896       91.16989       28.26437
H         27.55563       91.64126       26.53677
H         29.33704       92.82313       28.77308
H         27.88838       93.59076       28.04782
N         31.56721       90.66227       28.16935
C         32.49669       90.55240       29.27117
H         33.50624       90.88411       28.94844
H         32.16359       91.19644       30.11307
H         32.55751       89.49709       29.61129
H         31.92180       91.00932       27.26526
Ca        27.49789       93.72785       23.32521
O         28.15507       96.54593       21.49254
H         27.67173       97.39342       21.32437
H         28.86609       96.52407       20.80368
O         28.17585       96.82069       24.75449
H         29.00811       97.18817       24.36360
H         28.44819       96.48361       25.64468
O         29.80562       91.63238       23.50680
H         29.03630       91.68165       24.12619
H         29.39359       91.57432       22.60874
O         27.12987       93.37220       20.48961
H         27.68224       92.57266       20.68099
H         27.61811       93.84794       19.77246
O         30.26651       94.59451       22.57140
H         30.98529       94.97761       23.13365
H         30.70070       93.85322       22.07953

Ca 1.0



