%chk=apoCaM-CA-Ng.loop4.water8.frame718.chk
%nprocshared=20
%mem=10GB
%nosave
#b3lyp/svp scf=(tight,noincore,xqc) Test 
#IOP(5/87=12) Density=Current Pop=(MK,readradii) iop(6/33=2) iop(6/42=6)

apoCaM-CA-Ng.loop4.water8.frame718 

   -3  1 
C         88.99842       90.10703       -1.87187
C         90.08528       89.14345       -2.25063
O         89.78191       88.11544       -2.83352
H         88.27261       89.60470       -1.19900
H         89.40856       90.99621       -1.34806
H         88.47066       90.45019       -2.78667
N         91.38984       89.43203       -1.98505
C         92.51511       88.56783       -2.32830
C         92.49803       88.19007       -3.79980
O         92.67495       87.02601       -4.13742
C         92.60236       87.33739       -1.39661
C         92.89462       87.74011        0.02363
O         92.03993       88.52594        0.70184
O         93.91820       87.35793        0.56881
H         91.61295       90.34013       -1.54970
H         93.44813       89.15554       -2.17543
H         93.43618       86.68348       -1.73759
H         91.66207       86.74716       -1.43754
N         92.30226       89.15248       -4.74248
C         92.42192       88.88069       -6.17407
C         93.88118       88.54148       -6.50007
O         94.74047       88.83219       -5.67854
C         91.85014       90.05825       -7.03702
C         92.48522       91.43328       -6.70312
C         90.31647       90.07794       -6.89547
C         92.09128       92.53149       -7.69144
H         92.07547       90.09730       -4.41090
H         91.81680       87.97047       -6.39028
H         92.06614       89.86589       -8.10310
H         93.59064       91.33837       -6.73751
H         92.19335       91.77815       -5.69096
H         90.00806       90.29412       -5.85156
H         89.84969       90.81814       -7.57457
H         89.90886       89.08485       -7.17797
H         92.59474       93.47810       -7.40441
H         92.41168       92.25425       -8.71769
H         90.99857       92.71764       -7.68395
N         94.26962       87.84368       -7.60979
C         93.38031       87.35524       -8.65473
C         92.96239       85.92023       -8.43653
O         91.82660       85.61495       -8.76712
C         93.93657       87.63299      -10.06914
C         95.22728       86.93454      -10.43013
O         95.85141       86.10135       -9.57677
O         95.71813       87.12840      -11.53043
H         95.26585       87.58611       -7.67170
H         92.42656       87.90138       -8.62044
H         94.09948       88.72851      -10.16563
H         93.16996       87.33303      -10.81704
N         93.75370       84.99902       -7.81582
C         93.27942       83.64847       -7.57746
C         93.09241       82.91002       -8.88019
O         94.08223       82.59481       -9.52539
H         94.68796       85.25991       -7.47037
H         92.32602       83.70597       -7.00768
H         94.00417       83.08136       -6.95446
N         91.84117       82.62224       -9.33828
C         91.58459       81.86042      -10.55562
C         91.03525       82.71594      -11.69179
O         90.84842       82.16739      -12.76761
C         90.69559       80.63681      -10.21961
C         89.41252       80.96539       -9.49738
O         89.20658       80.49467       -8.25230
O         88.54727       81.63606      -10.02867
H         91.03015       82.96761       -8.80233
H         92.53627       81.45421      -10.96330
H         91.28490       79.97143       -9.55314
H         90.46261       80.06521      -11.14410
N         90.82589       84.06252      -11.57912
C         90.39700       84.88891      -12.70060
C         88.98675       84.59480      -13.17099
O         88.59572       85.14168      -14.19195
H         91.02628       84.53852      -10.69650
H         91.10911       84.73193      -13.54067
H         90.44117       85.96366      -12.41877
N         88.15821       83.76221      -12.47445
C         86.81761       83.37291      -12.89491
C         85.82934       84.53000      -12.91418
O         84.70389       84.31006      -13.34010
C         86.86668       82.57100      -14.21760
C         87.69173       81.28436      -14.02724
C         87.73408       80.43602      -15.26865
N         88.91612       80.12411      -15.85142
O         86.69313       80.00530      -15.74160
H         88.48962       83.36176      -11.59499
H         86.40151       82.67261      -12.13558
H         87.28712       83.18276      -15.04300
H         85.83276       82.27553      -14.49985
H         87.25012       80.67789      -13.20657
H         88.72136       81.55283      -13.73381
H         89.80714       80.46626      -15.46197
H         88.94351       79.52898      -16.69228
N         86.12432       85.74452      -12.35763
C         85.13599       86.81173      -12.21379
C         84.75166       87.01971      -10.75256
O         83.83670       87.79697      -10.51365
C         85.62655       88.13965      -12.85773
C         86.89697       88.69354      -12.19024
C         85.85553       87.97271      -14.36372
H         87.05302       85.89843      -11.94473
H         84.19067       86.52273      -12.72350
H         84.82331       88.89972      -12.72875
H         86.71898       88.85876      -11.11063
H         87.75998       88.00722      -12.31395
H         87.16942       89.67217      -12.63867
H         84.91984       87.63258      -14.85570
H         86.14787       88.94592      -14.81354
H         86.65895       87.23311      -14.56373
N         85.38623       86.37544       -9.72468
C         85.00962       86.54356       -8.32598
C         84.66888       85.20594       -7.69486
O         84.80537       84.16649       -8.32754
C         86.15345       87.22941       -7.55827
C         86.40880       88.61460       -8.09251
N         87.60021       88.93255       -8.64567
O         85.52843       89.45989       -8.02379
H         86.17955       85.74786       -9.91555
H         84.09962       87.17826       -8.23823
H         87.06854       86.60311       -7.63847
H         85.90080       87.33049       -6.48117
H         88.34837       88.22941       -8.72622
H         87.77043       89.88234       -9.00798
N         84.15240       85.18445       -6.43731
C         83.68616       83.96714       -5.77762
C         82.71227       84.29332       -4.65205
O         82.53793       85.45884       -4.32667
C         84.85782       83.08391       -5.28268
C         85.75695       83.76840       -4.27288
C         86.67377       84.75784       -4.67359
C         85.70596       83.39845       -2.91833
C         87.52149       85.36262       -3.73737
C         86.54439       84.01046       -1.98416
C         87.45548       84.98786       -2.38635
O         88.26205       85.54570       -1.46290
H         84.00104       86.09818       -5.98553
H         83.08081       83.39395       -6.51477
H         85.48208       82.72867       -6.13044
H         84.41495       82.17341       -4.82493
H         86.74972       85.04605       -5.71197
H         85.01191       82.64058       -2.57972
H         88.22955       86.11422       -4.06574
H         86.49163       83.72127       -0.94235
H         88.93325       86.20057       -1.68591
N         81.97240       83.30859       -4.06355
C         80.95004       83.59622       -3.06612
C         81.20647       82.79960       -1.79971
O         80.75448       81.66438       -1.72791
C         79.55505       83.30136       -3.65746
C         78.42490       83.70302       -2.69368
C         77.07713       83.45255       -3.30327
O         76.21432       82.60720       -2.70792
O         76.74999       84.02408       -4.33125
H         82.09063       82.33226       -4.37653
H         80.92962       84.67174       -2.83016
H         79.46863       82.22279       -3.91844
H         79.44611       83.89046       -4.59508
H         78.50942       84.78347       -2.44614
H         78.50642       83.12131       -1.75077
N         81.93405       83.27096       -0.74685
C         82.65624       84.54020       -0.69911
C         81.74395       85.75313       -0.73071
O         80.81232       85.83140        0.05808
C         83.51591       84.58896        0.57625
C         84.44559       85.81133        0.59014
C         85.36362       85.80728        1.77365
O         86.18918       86.69546        1.88723
O         85.29963       84.83591        2.70611
H         82.03666       82.63281        0.05948
H         83.36308       84.56659       -1.55700
H         84.15104       83.67544        0.59613
H         82.86560       84.58754        1.48043
H         83.85210       86.75064        0.60524
H         85.06831       85.80240       -0.32919
N         82.01680       86.77415       -1.59310
C         81.24947       87.99869       -1.67180
H         80.38711       88.00453       -0.97424
H         81.91050       88.85667       -1.42362
H         80.87300       88.12927       -2.70780
H         82.83950       86.70257       -2.20873
Ca        87.98858       88.19661        3.45794
O         87.75941       88.33842        6.52239
H         87.25581       87.48837        6.58457
H         87.10064       89.03501        6.76923
O         86.28819       89.69743        1.25050
H         85.34331       89.81014        1.52405
H         86.64160       90.62016        1.18856
O         89.67475       86.24022        1.86966
H         89.27622       85.82489        1.06482
H         90.62529       86.37971        1.63256
O         88.03547       85.41481        4.82624
H         87.66084       84.86297        5.55735
H         87.27680       85.54516        4.20548
O         85.00486       88.40245        4.25738
H         85.02459       88.44560        5.24601
H         84.52095       87.56255        4.05655
O         90.60222       88.18604        4.78549
H         91.10389       88.04605        3.94329
H         90.89314       87.44701        5.37635
O         87.59883       90.90643        4.38436
H         87.39247       91.79748        4.00679
H         88.01655       91.09399        5.26205
O         89.47001       90.13280        1.65737
H         89.61207       89.21023        1.32701
H         90.38055       90.50908        1.75282

Ca 1.0



