%chk=apoCaM-CA-Ng.loop1.water3.frame1342.chk
%nprocshared=20
%mem=10GB
%nosave
#b3lyp/svp scf=(tight,noincore,xqc) Test 
#IOP(5/87=12) Density=Current Pop=(MK,readradii) iop(6/33=2) iop(6/42=6)

apoCaM-CA-Ng.loop1.water3.frame1342 

   0  1 
C         61.85831       26.29985       93.41553
C         60.43520       26.58978       93.77532
O         59.87086       27.52949       93.23212
H         62.49271       26.37226       94.32351
H         61.93262       25.27935       92.98830
H         62.22727       27.03295       92.66543
N         59.79446       25.83047       94.71186
C         58.42596       26.09834       95.13541
C         58.41366       26.59954       96.56403
O         57.67414       26.09777       97.40015
C         57.48414       24.90314       94.86713
C         57.82707       23.65153       95.62983
O         56.94166       23.13655       96.50433
O         58.88507       23.07514       95.43795
H         60.31776       25.07020       95.16939
H         58.01329       26.93497       94.54112
H         57.48839       24.67318       93.78009
H         56.45000       25.21304       95.13840
N         59.19352       27.66909       96.88205
C         59.10845       28.38107       98.14903
C         57.69654       28.94730       98.30064
O         57.08093       28.64018       99.31149
C         60.20674       29.47203       98.26225
C         61.61424       28.84260       98.26762
C         62.71769       29.90609       98.22056
C         64.10623       29.24823       98.23880
N         65.16513       30.24636       98.09436
H         59.83252       28.03052       96.15827
H         59.29857       27.67143       98.98750
H         60.07558       30.03672       99.21160
H         60.13903       30.20063       97.43410
H         61.74493       28.19109       97.37804
H         61.72705       28.21479       99.17923
H         62.62346       30.59740       99.08598
H         62.60540       30.49057       97.28070
H         64.18679       28.51741       97.40301
H         64.24151       28.69883       99.19725
H         66.09384       29.76691       98.13093
H         65.07436       30.73041       97.17130
H         65.11251       30.94719       98.86841
N         57.04823       29.69887       97.35101
C         57.59195       30.13205       96.06172
C         56.90383       29.41712       94.90292
O         55.94956       28.68211       95.12219
C         57.47371       31.66563       95.94306
C         56.03310       32.08072       95.84684
O         55.30949       31.64657       94.79869
O         55.51925       32.76200       96.71438
H         56.06789       29.95489       97.55047
H         58.65281       29.88143       95.97940
H         57.99887       32.02542       95.03329
H         57.96137       32.13292       96.82761
N         57.37553       29.56567       93.63103
C         56.81791       28.85182       92.49121
C         55.55063       29.47143       91.94285
O         55.12864       30.52161       92.39491
H         58.22801       30.12660       93.48140
H         56.65741       27.78651       92.76132
H         57.55369       28.87701       91.65869
N         54.90039       28.84819       90.92183
C         53.73427       29.38912       90.21596
C         54.01521       29.36356       88.70804
O         55.03749       28.80655       88.32951
C         52.51885       28.50697       90.56593
C         52.22020       28.55278       92.03823
O         51.90636       29.60653       92.56855
O         52.28949       27.42942       92.77742
H         55.25441       27.92416       90.62674
H         53.53805       30.43751       90.53024
H         52.73240       27.45765       90.26478
H         51.60704       28.82977       90.03840
N         53.20952       29.90320       87.74307
C         52.01356       30.71198       87.91154
C         52.33928       32.06482       88.48270
O         53.27627       32.69480       88.01220
H         53.50019       29.75483       86.76314
H         51.20786       30.18939       88.45738
H         51.60821       30.91401       86.89588
N         51.55176       32.62016       89.44267
C         51.81362       33.94758       89.98506
C         53.05724       33.89094       90.84568
O         53.12477       33.03283       91.71078
C         50.62002       34.47564       90.82424
C         49.32559       34.59470       90.00626
O         50.93066       35.73765       91.36459
H         50.72600       32.09517       89.76830
H         51.94197       34.67360       89.15037
H         50.42973       33.77662       91.66725
H         51.12807       36.35637       90.61265
H         49.46692       35.29616       89.15595
H         49.00441       33.61151       89.60838
H         48.51275       34.98735       90.65399
N         54.05679       34.80719       90.68424
C         55.26777       34.89011       91.50075
C         54.90562       35.06740       92.96662
O         54.51185       34.10244       93.60247
C         56.20847       33.66777       91.27712
C         56.55281       33.43803       89.78296
C         57.48731       33.76143       92.13205
C         57.31356       34.58266       89.10774
H         53.93693       35.53116       89.95991
H         55.81247       35.80323       91.17642
H         55.67209       32.75999       91.60891
H         55.61485       33.26255       89.21605
H         57.16413       32.51298       89.69628
H         57.23766       33.80054       93.21294
H         58.11936       32.86141       91.97344
H         58.07511       34.66820       91.88330
H         58.28906       34.76269       89.60299
H         57.51315       34.31212       88.04976
H         56.71679       35.51700       89.11177
N         55.01111       36.27922       93.57409
C         54.66754       36.49575       94.97532
C         53.45737       37.40957       95.14567
O         53.10827       37.67247       96.28359
C         55.90517       36.98712       95.76783
C         56.48725       38.30518       95.25082
O         56.91043       36.00700       95.72357
H         55.32518       37.08520       93.01210
H         54.36645       35.54203       95.46034
H         55.61063       37.15839       96.83062
H         56.65283       35.30103       96.37351
H         57.34082       38.60689       95.89448
H         56.87201       38.19396       94.21614
H         55.72351       39.10960       95.27589
N         52.74101       37.89623       94.08113
C         51.54599       38.72966       94.25018
C         50.46141       37.91969       94.96611
O         49.81710       37.10490       94.32394
C         51.07043       39.24218       92.85963
C         49.85473       40.16744       92.93910
O         52.12633       39.93756       92.24383
H         53.04705       37.66953       93.12561
H         51.83194       39.61164       94.86479
H         50.79787       38.35285       92.24229
H         52.02693       39.81537       91.26266
H         49.56927       40.48679       91.91269
H         48.98656       39.64440       93.38978
H         50.09525       41.07084       93.53729
N         50.28724       38.03089       96.32233
C         49.42500       37.16940       97.14114
C         49.83413       35.70495       97.06259
O         49.91106       35.14277       95.98187
C         47.92175       37.35335       96.87424
C         47.43223       38.70168       97.43178
C         45.89864       38.77205       97.46363
C         45.37559       39.98012       98.26136
N         45.73952       41.25875       97.65326
H         50.85839       38.72429       96.82763
H         49.57437       37.45852       98.20526
H         47.39942       36.56354       97.46006
H         47.65702       37.21560       95.80454
H         47.87060       39.53909       96.84900
H         47.77694       38.78468       98.48689
H         45.51771       37.86798       97.98920
H         45.49026       38.77125       96.43084
H         45.76630       39.93757       99.30384
H         44.26695       39.90850       98.31614
H         45.31593       42.03051       98.21769
H         46.77612       41.38679       97.65243
H         45.36799       41.30838       96.67750
N         50.08587       35.00692       98.20722
C         50.62103       33.65253       98.19921
C         52.02997       33.66228       97.63466
O         52.24168       32.93529       96.68095
C         50.59488       32.98930       99.59330
C         49.15908       32.67505      100.03624
C         49.15246       32.02687      101.38972
O         48.71957       30.89391      101.52873
O         49.61775       32.69821      102.46038
H         49.90696       35.46156       99.11520
H         49.98656       33.00725       97.54654
H         51.10369       33.61548      100.35120
H         51.13771       32.01873       99.53403
H         48.69831       31.98402       99.29358
H         48.54841       33.60053      100.07937
N         53.06352       34.42315       98.10756
C         53.02793       35.36281       99.20770
H         53.31209       36.36796       98.83301
H         52.04729       35.45398       99.69057
H         53.76360       35.04789       99.97641
H         53.97103       34.34742       97.63103
Ca        53.09691       31.77349       94.41562
O         51.75402       34.40546       94.01239
H         52.25846       34.66474       94.82055
H         51.35813       35.25461       93.70794
O         52.71453       29.10829       95.88043
H         52.02607       28.70120       95.29714
H         52.19710       29.61489       96.55574
O         50.13514       31.85086       94.15465
H         49.34932       32.18664       93.65532
H         49.80961       31.72336       95.08095

Ca 1.0



