%chk=apoCaM-CA-Ng.loop3.water7.frame1176.chk
%nprocshared=20
%mem=10GB
%nosave
#b3lyp/svp scf=(tight,noincore,xqc) Test 
#IOP(5/87=12) Density=Current Pop=(MK,readradii) iop(6/33=2) iop(6/42=6)

apoCaM-CA-Ng.loop3.water7.frame1176 

   0  1 
C         -6.73638       49.86588        1.49791
C         -6.18008       48.71311        0.72046
O         -5.40760       48.94913       -0.19623
H         -7.44764       49.52369        2.27759
H         -5.90588       50.41856        1.98503
H         -7.26925       50.55006        0.80415
N         -6.52209       47.42768        1.02495
C         -6.00335       46.29464        0.26512
C         -6.52085       46.30507       -1.16511
O         -5.92932       45.63359       -1.99172
C         -6.36114       44.94325        0.91954
C         -5.72350       44.77329        2.27453
O         -4.93688       43.85975        2.46667
O         -6.02329       45.60808        3.28770
H         -7.15942       47.25914        1.81713
H         -4.89418       46.37852        0.24019
H         -5.99952       44.11970        0.26415
H         -7.46481       44.84518        1.01163
N         -7.63370       47.01026       -1.52409
C         -8.16651       47.06237       -2.88475
C         -8.48031       45.66318       -3.38943
O         -9.19247       44.92858       -2.71891
C         -9.40310       47.97629       -2.90143
C         -9.98002       48.19295       -4.30410
C        -11.10277       49.23904       -4.24048
C        -11.74119       49.53368       -5.60398
N        -12.47248       48.38370       -6.13561
H         -8.13926       47.53104       -0.79277
H         -7.40092       47.53165       -3.54235
H         -9.08553       48.96492       -2.50023
H        -10.19091       47.56291       -2.23293
H        -10.35885       47.22422       -4.69025
H         -9.18129       48.56533       -4.98324
H        -10.66635       50.18970       -3.85988
H        -11.89244       48.91268       -3.52912
H        -10.96112       49.85536       -6.32781
H        -12.45661       50.37474       -5.46750
H        -12.95058       48.66938       -7.02018
H        -11.82197       47.59682       -6.35396
H        -13.19663       48.07118       -5.44844
N         -7.91961       45.22298       -4.55346
C         -7.96814       43.83608       -5.00844
C         -6.56813       43.21537       -4.98799
O         -6.44582       42.03447       -5.28165
C         -8.70111       43.70878       -6.36000
C         -8.08770       44.42185       -7.53202
O         -8.65826       44.37712       -8.60978
O         -6.93022       45.10137       -7.42479
H         -7.36649       45.89230       -5.10881
H         -8.56519       43.22685       -4.29465
H         -9.73201       44.10242       -6.22183
H         -8.78480       42.63059       -6.62144
N         -5.48971       43.92413       -4.52962
C         -4.21858       43.33416       -4.16079
C         -4.28199       43.09531       -2.66516
O         -5.11798       42.29357       -2.27184
H         -5.60297       44.89991       -4.23746
H         -3.41277       44.02619       -4.47572
H         -4.04544       42.36071       -4.66776
N         -3.54186       43.76158       -1.73029
C         -2.50451       44.75397       -1.99085
C         -2.16099       45.46909       -0.68089
O         -1.78578       44.78916        0.26446
C         -1.23531       44.05212       -2.52698
C         -0.08939       45.01399       -2.73361
N         -0.17689       46.01874       -3.63456
O          0.93172       44.88098       -2.07517
H         -3.77362       43.55900       -0.74420
H         -2.88038       45.48851       -2.72936
H         -1.43924       43.53121       -3.48291
H         -0.92581       43.27869       -1.78825
H         -1.02553       46.14409       -4.20440
H          0.60872       46.67405       -3.76221
N         -2.23581       46.82252       -0.51597
C         -2.63161       47.75861       -1.56154
C         -2.54354       49.20699       -1.12168
O         -2.17903       49.48113        0.01543
H         -1.97186       47.18563        0.41309
H         -3.67471       47.54351       -1.87806
H         -1.95362       47.64202       -2.43086
N         -2.85804       50.20396       -1.99794
C         -2.76601       51.62043       -1.65446
C         -4.12909       52.28935       -1.77413
O         -5.05531       51.67516       -2.29166
C         -1.72205       52.27680       -2.59053
C         -1.33799       53.67783       -2.18706
C         -1.59872       54.77106       -3.03028
C         -0.69514       53.89740       -0.95721
C         -1.23166       56.06387       -2.64063
C         -0.32835       55.18782       -0.57126
C         -0.59805       56.27713       -1.41092
O         -0.25318       57.52845       -1.04694
H         -3.15730       49.94791       -2.95334
H         -2.43218       51.72486       -0.60066
H         -2.11713       52.25343       -3.63119
H         -0.78816       51.67251       -2.57982
H         -2.08921       54.62616       -3.98466
H         -0.47381       53.06719       -0.29825
H         -1.44221       56.90130       -3.29367
H          0.16599       55.33795        0.38016
H          0.18363       57.71543       -0.20348
N         -4.33432       53.55084       -1.29372
C         -5.61462       54.25487       -1.43014
C         -5.92043       54.48553       -2.91266
O         -5.04752       54.25573       -3.73781
C         -5.61702       55.56407       -0.55617
C         -4.57073       56.61087       -1.03125
C         -7.01589       56.20145       -0.43562
C         -4.47380       57.83954       -0.12128
H         -3.56045       54.00126       -0.78675
H         -6.39567       53.58050       -1.01391
H         -5.34686       55.23565        0.47282
H         -4.80850       56.94829       -2.06297
H         -3.56442       56.15348       -1.04566
H         -7.30961       56.72296       -1.36791
H         -7.77182       55.43500       -0.16181
H         -7.03403       56.96373        0.36863
H         -3.66655       58.50854       -0.48623
H         -5.41589       58.42501       -0.12858
H         -4.23738       57.53236        0.91973
N         -7.14245       54.93209       -3.32702
C         -7.46006       55.15944       -4.73237
C         -8.83108       54.61197       -5.08980
O         -9.58198       54.21258       -4.21308
C         -7.40754       56.66621       -5.02414
O         -8.36168       57.34238       -4.25205
H         -7.87302       55.12897       -2.63454
H         -6.70690       54.66184       -5.38081
H         -7.59763       56.83888       -6.10792
H         -6.39344       57.05050       -4.77664
H         -8.48040       58.23422       -4.67045
N         -9.22177       54.61041       -6.39654
C        -10.55146       54.26171       -6.87814
C        -11.56031       55.29234       -6.40990
O        -12.59456       54.93622       -5.85971
C        -10.93467       52.81698       -6.52077
H         -8.54070       54.91508       -7.10762
H        -10.53064       54.33399       -7.98805
H        -10.16851       52.11708       -6.91340
H        -11.02231       52.67049       -5.42448
H        -11.91518       52.55924       -6.97465
N        -11.29642       56.62065       -6.60578
C        -12.19683       57.71771       -6.26247
C        -12.53652       57.81310       -4.78040
O        -13.33466       58.67448       -4.43495
C        -13.47194       57.63089       -7.11025
H        -10.40166       56.87946       -7.04984
H        -11.69925       58.67444       -6.53917
H        -14.11373       58.51970       -6.92844
H        -13.20184       57.62059       -8.18755
H        -14.05895       56.72056       -6.87483
N        -11.97927       56.99462       -3.83977
C        -12.34505       57.06060       -2.43169
C        -12.01499       58.43927       -1.88662
O        -12.85937       59.05648       -1.25286
C        -11.62485       55.94794       -1.62971
C        -12.30780       55.65962       -0.27860
C        -13.67342       55.04712       -0.47725
O        -13.78938       53.98521       -1.07060
O        -14.77250       55.66442       -0.00460
H        -11.27596       56.29986       -4.11737
H        -13.43862       56.86984       -2.36367
H        -10.55709       56.22281       -1.48437
H        -11.64364       54.99371       -2.20167
H        -12.38432       56.59220        0.31986
H        -11.69654       54.92819        0.29176
N        -10.81912       59.01845       -2.19121
C        -10.48051       60.36899       -1.80241
H         -9.49719       60.64949       -2.23954
H        -11.24374       61.07843       -2.18991
H        -10.42035       60.44501       -0.69821
H        -10.14191       58.50246       -2.77049
Ca        -7.02092       45.79371      -10.51921
O         -9.41630       44.86769      -12.01839
H         -9.52317       43.90808      -12.23729
H        -10.26764       45.28660      -12.30036
O         -9.15844       47.81041      -10.04252
H         -9.83097       48.41084      -10.45096
H         -8.94786       48.22693       -9.16936
O         -4.19356       45.27444      -10.05181
H         -3.23942       45.34821      -10.30331
H         -4.18789       44.83636       -9.16382
O         -6.23849       47.91035      -12.42457
H         -6.45919       47.25863      -13.13678
H         -7.05777       48.45766      -12.32622
O         -5.85672       48.02034       -8.81084
H         -5.11768       48.08954       -9.46620
H         -6.41256       48.82212       -8.97902
O         -6.37711       44.12000      -12.94288
H         -5.40924       44.31052      -13.02792
H         -6.77300       44.45217      -13.78725
O         -6.65138       42.72623      -10.15578
H         -6.88559       41.97808       -9.55135
H         -5.66272       42.76841      -10.12953

Ca 1.0



