%chk=apoCaM-CA-Ng.loop3.water6.frame1125.chk
%nprocshared=20
%mem=10GB
%nosave
#b3lyp/svp scf=(tight,noincore,xqc) Test 
#IOP(5/87=12) Density=Current Pop=(MK,readradii) iop(6/33=2) iop(6/42=6)

apoCaM-CA-Ng.loop3.water6.frame1125 

   0  1 
C         72.69443       85.83244       67.29707
C         72.67491       86.27285       68.73137
O         71.59543       86.42329       69.27920
H         73.73217       85.74429       66.91237
H         72.20517       84.83806       67.21321
H         72.14101       86.56335       66.67258
N         73.83771       86.47150       69.41262
C         73.89450       86.82029       70.83084
C         74.65773       88.11026       71.10431
O         74.81428       88.43310       72.27362
C         74.48935       85.64109       71.63658
C         75.90546       85.26883       71.29827
O         76.50334       84.26358       71.96418
O         76.52070       85.85866       70.42995
H         74.72212       86.32040       68.90733
H         72.87245       86.97321       71.23243
H         73.85352       84.74580       71.47260
H         74.45307       85.89313       72.71903
N         75.13126       88.91852       70.10554
C         75.84864       90.17009       70.35166
C         75.01370       91.09195       71.23012
O         75.48353       91.54326       72.26701
C         77.23976       89.89180       70.96686
C         78.19086       89.16734       69.99425
C         79.55083       88.86647       70.66203
C         79.50830       87.68193       71.65007
N         79.50504       86.39599       70.94645
H         74.94956       88.67214       69.12233
H         76.00009       90.69318       69.38074
H         77.11157       89.31944       71.90543
H         77.72099       90.86154       71.22647
H         78.36405       89.86009       69.14192
H         77.73724       88.24206       69.58573
H         79.88071       89.78695       71.19070
H         80.31761       88.63615       69.89177
H         78.63477       87.75963       72.33127
H         80.41973       87.71022       72.28538
H         78.78653       86.36773       70.19605
H         80.43657       86.24174       70.49747
H         79.32960       85.62306       71.62864
N         73.73078       91.37531       70.87788
C         72.83662       92.19217       71.69238
C         71.74465       91.31129       72.27710
O         70.56220       91.55006       72.07312
C         72.34479       93.42196       70.89566
C         71.59274       93.13157       69.62567
O         71.20588       94.06511       68.94170
O         71.33560       91.87063       69.22836
H         73.36620       90.94238       70.01830
H         73.37688       92.60480       72.57228
H         73.23595       94.02892       70.62422
H         71.69509       94.04160       71.55107
N         72.11208       90.26118       73.06179
C         71.17028       89.36766       73.71767
C         71.93853       88.33345       74.53107
O         72.71268       88.75355       75.38077
H         73.12095       90.10669       73.20785
H         70.51462       88.91368       72.95136
H         70.52723       89.95600       74.40677
N         71.84997       86.97992       74.34822
C         70.91076       86.31910       73.43905
C         71.36390       84.88912       73.10186
O         72.30631       84.40707       73.71129
C         69.50512       86.36654       74.08768
C         69.43884       85.49959       75.32713
N         69.29724       86.04800       76.55492
O         69.52008       84.28450       75.21912
H         72.48438       86.40021       74.91742
H         70.93372       86.86288       72.47655
H         68.70519       86.05251       73.39787
H         69.27416       87.41928       74.35102
H         69.24292       87.06897       76.67663
H         69.26292       85.44566       77.39113
N         70.80306       84.14292       72.10470
C         69.71055       84.58733       71.25070
C         69.48033       83.67749       70.06633
O         70.16721       82.67027       69.92671
H         71.23484       83.22074       71.93163
H         69.93656       85.59059       70.84671
H         68.77025       84.62703       71.83139
N         68.51126       83.97883       69.15537
C         68.21794       83.12677       68.00997
C         68.39192       83.87054       66.69072
O         68.51105       85.09050       66.68271
C         66.78282       82.58147       68.16411
C         66.45561       81.50131       67.16761
C         65.44599       81.68801       66.21079
C         67.16748       80.28978       67.19102
C         65.16278       80.68136       65.28272
C         66.88268       79.28617       66.26457
C         65.88016       79.47956       65.30430
O         65.60094       78.52098       64.39918
H         67.94216       84.83023       69.29686
H         68.93105       82.27481       68.00083
H         66.07382       83.43573       68.08183
H         66.66058       82.14289       69.17860
H         64.88544       82.61390       66.17634
H         67.94530       80.12342       67.92610
H         64.38804       80.83784       64.54337
H         67.44391       78.36092       66.29419
H         66.08039       77.68038       64.37895
N         68.47589       83.16530       65.52782
C         68.68144       83.77295       64.21355
C         67.42399       84.49182       63.73112
O         66.33396       84.14370       64.16330
C         69.17180       82.68640       63.19922
C         68.08347       81.61566       62.89892
C         69.70614       83.31724       61.90073
C         68.63183       80.38202       62.17915
H         68.48823       82.13954       65.60664
H         69.50918       84.50870       64.33109
H         70.03615       82.18508       63.69109
H         67.25819       82.06355       62.30405
H         67.64420       81.23857       63.84075
H         70.48391       84.07441       62.13594
H         70.18534       82.55368       61.25588
H         68.89187       83.79797       61.32114
H         69.42475       79.90638       62.79622
H         67.81363       79.64447       62.03723
H         69.04268       80.63210       61.18174
N         67.51214       85.51137       62.82878
C         66.35442       86.20247       62.26348
C         66.30659       87.63430       62.74082
O         67.35298       88.25024       62.87034
C         66.41121       86.16782       60.72738
O         67.56799       86.81276       60.26215
H         68.45005       85.82180       62.53107
H         65.40572       85.70630       62.56400
H         65.50078       86.67985       60.33358
H         66.41048       85.11459       60.37400
H         67.37897       87.10575       59.33270
N         65.10657       88.24965       62.97115
C         64.98130       89.63118       63.42638
C         65.60141       90.62982       62.45240
O         65.84038       91.75959       62.85437
C         65.57714       89.76681       64.83686
H         64.23640       87.71920       62.81433
H         63.90438       89.89120       63.52476
H         66.66606       89.56031       64.85298
H         65.40825       90.79398       65.22268
H         65.07234       89.05724       65.52642
N         65.87889       90.29244       61.15473
C         66.57482       91.16104       60.21237
C         67.98624       91.38401       60.71000
O         68.39646       92.51088       60.95317
C         65.79614       92.45590       59.93112
H         65.62052       89.35793       60.80779
H         66.65823       90.62878       59.23799
H         64.78601       92.20656       59.54304
H         65.68732       93.09077       60.83215
H         66.32827       93.04963       59.15694
N         68.78439       90.29411       60.88131
C         70.14504       90.33626       61.38942
C         71.08181       89.87493       60.29400
O         71.98360       90.61616       59.92866
C         70.24104       89.41946       62.63053
C         71.55759       89.51256       63.41954
C         71.59706       90.78764       64.20955
O         71.41984       90.72704       65.54061
O         71.66721       91.87344       63.65783
H         68.39418       89.37209       60.63662
H         70.40577       91.37453       61.67658
H         70.08871       88.36693       62.30991
H         69.41917       89.66717       63.33912
H         72.45513       89.38308       62.77810
H         71.54475       88.67985       64.15690
N         70.89817       88.66518       59.69249
C         71.72939       88.20641       58.60417
H         72.77970       88.10280       58.94569
H         71.36638       87.21875       58.24660
H         71.67561       88.92651       57.75990
H         70.12612       88.05265       59.99352
Ca        70.64173       92.54935       66.59287
O         68.15394       92.50809       64.58411
H         68.70484       92.57659       63.76512
H         68.11566       91.53718       64.77041
O         69.57359       89.29483       67.53833
H         69.06292       88.76326       66.87702
H         69.57771       88.73773       68.35691
O         70.47969       94.93243       64.82730
H         69.97900       94.74305       63.99493
H         71.27903       94.35115       64.77079
O         68.33785       94.45141       67.48373
H         67.71929       94.54416       68.25120
H         68.56652       95.38167       67.23351
O         68.53500       91.75073       69.61165
H         67.97089       91.18373       70.19401
H         68.85299       92.47765       70.20281
O         66.93273       91.54641       67.27457
H         66.70934       90.70750       67.75076
H         66.18086       92.15722       67.47867

Ca 1.0



