%chk=apoCaM-CA-Ng.loop2.water2.frame997.chk
%nprocshared=20
%mem=10GB
%nosave
#b3lyp/svp scf=(tight,noincore,xqc) Test 
#IOP(5/87=12) Density=Current Pop=(MK,readradii) iop(6/33=2) iop(6/42=6)

apoCaM-CA-Ng.loop2.water2.frame997 

   -2  1 
C         60.20503       91.73032       42.94021
C         58.85908       92.29666       43.28276
O         58.17904       92.81325       42.40819
H         60.98824       92.25033       43.53086
H         60.22482       90.64779       43.19056
H         60.42520       91.85127       41.85912
N         58.40617       92.20474       44.56032
C         57.10929       92.69398       45.00902
C         56.23860       91.51195       45.38486
O         55.11330       91.44742       44.91238
C         57.30418       93.67244       46.18436
C         56.00416       94.28625       46.64178
O         55.83496       95.49261       46.56080
O         55.02755       93.51572       47.15887
H         59.01732       91.74207       45.25059
H         56.59470       93.25928       44.19846
H         57.98006       94.48858       45.84475
H         57.78673       93.16119       47.04464
N         56.70566       90.53068       46.21277
C         55.91719       89.36942       46.62906
C         56.73448       88.43010       47.52173
O         57.95568       88.50340       47.49478
C         55.43398       88.54531       45.41815
H         57.66183       90.63588       46.57740
H         55.05820       89.77984       47.19759
H         56.30490       88.18149       44.83148
H         54.84345       87.66707       45.74482
H         54.77647       89.12396       44.74370
N         56.17092       87.49272       48.34123
C         54.74072       87.33154       48.59562
C         54.44177       87.71238       50.03602
O         55.37048       87.97263       50.79035
C         54.24690       85.91855       48.21785
C         54.91515       84.79531       48.95988
O         54.17887       83.97121       49.72487
O         56.10881       84.58205       48.82486
H         56.81869       86.90481       48.88535
H         54.15390       88.03337       47.97846
H         54.40923       85.75345       47.13178
H         53.15229       85.86759       48.40281
N         53.15436       87.87970       50.45543
C         52.83410       88.46227       51.74838
C         51.75569       87.72664       52.51072
O         50.71205       88.32801       52.72176
H         52.38431       87.72497       49.78774
H         52.45964       89.49016       51.54703
H         53.72599       88.57350       52.40170
N         51.90371       86.48477       53.05293
C         53.05653       85.61136       52.90244
C         53.87615       85.65802       54.17967
O         53.41063       85.19367       55.21173
C         52.51362       84.19004       52.60201
C         53.51725       83.07694       52.51034
N         53.08632       81.80661       52.34521
O         54.70902       83.30087       52.59682
H         51.13610       86.14657       53.65614
H         53.69852       85.95191       52.06697
H         51.93492       84.21666       51.65346
H         51.81748       83.90904       53.42259
H         52.08085       81.59611       52.27706
H         53.75243       81.02687       52.30231
N         55.09795       86.27013       54.18785
C         55.89578       86.41732       55.39388
C         56.73141       85.19758       55.72336
O         57.33801       85.19727       56.78499
H         55.43045       86.73967       53.33255
H         55.23052       86.69415       56.24131
H         56.61321       87.25564       55.26094
N         56.85494       84.14327       54.86308
C         57.73681       83.00281       55.11316
C         58.39904       82.51967       53.78974
O         58.67495       83.59885       52.95136
C         56.93117       81.84018       55.73968
C         56.32973       82.19915       57.10238
O         55.89925       81.47143       54.86074
H         56.38501       84.19442       53.95460
H         58.55715       83.31862       55.79636
H         57.62367       80.98310       55.90114
H         55.72554       80.50688       55.00576
H         55.79837       81.31675       57.51818
H         57.13182       82.49143       57.81278
H         55.59600       83.02721       57.01304
N         59.64560       81.77875       54.02874
C         60.16030       81.05631       52.84160
C         59.66351       79.61392       52.80494
O         59.77028       78.91135       53.79993
C         61.70779       81.17046       52.76944
C         62.08713       82.65033       52.48905
C         62.40402       80.63092       54.03413
C         63.57101       82.86874       52.19748
H         59.60657       81.16146       54.87114
H         59.79857       81.54208       51.90806
H         62.04467       80.56941       51.89475
H         61.78039       83.29767       53.33938
H         61.53789       82.99193       51.58310
H         62.11827       81.22634       54.92728
H         62.14282       79.56920       54.20995
H         63.50611       80.66867       53.92562
H         63.88738       82.24715       51.33275
H         63.73786       83.93696       51.94241
H         64.19737       82.63007       53.07940
N         59.07941       79.12331       51.67181
C         58.41313       77.82706       51.59927
C         59.00513       76.88416       50.57076
O         58.51071       75.76280       50.51316
C         56.94300       78.07279       51.21884
C         56.27646       78.95534       52.22275
O         56.10889       78.52902       53.48776
O         55.90562       80.07055       51.90024
H         59.04244       79.71832       50.83633
H         58.46203       77.31027       52.58323
H         56.37337       77.12097       51.14951
H         56.91706       78.56300       50.21799
N         59.99374       77.23259       49.69227
C         60.45898       76.29324       48.67340
C         61.31364       76.98406       47.61576
O         62.30557       77.60120       47.98774
C         61.22127       75.10375       49.31762
C         61.47712       74.00330       48.31191
C         62.50972       74.10980       47.36353
C         60.65732       72.85961       48.30369
C         62.71203       73.09456       46.42351
C         60.85727       71.85238       47.35627
C         61.88360       71.96952       46.41663
H         60.36822       78.19373       49.69911
H         59.54883       75.88435       48.19339
H         60.59299       74.67520       50.12258
H         62.16635       75.41937       49.81083
H         63.16043       74.97402       47.35179
H         59.84914       72.75555       49.01736
H         63.50866       73.18245       45.69651
H         60.21232       70.98308       47.34839
H         62.03598       71.18853       45.68320
N         61.04284       76.88711       46.27028
C         61.91115       77.41404       45.22267
C         62.09905       78.92062       45.18893
O         62.90360       79.37605       44.38863
C         61.22718       76.97547       43.92218
C         60.58584       75.67359       44.33362
C         60.01059       76.03901       45.69586
H         62.89834       76.91386       45.34673
H         60.38843       77.67418       43.69059
H         61.89966       76.92318       43.04004
H         59.84371       75.25983       43.61882
H         61.40038       74.92747       44.47986
H         59.07396       76.63139       45.60182
H         59.83604       75.08664       46.23599
N         61.37402       79.76261       45.97883
C         61.54383       81.21208       45.93426
C         62.96001       81.60017       46.30920
O         63.58815       82.33574       45.55933
C         60.48633       81.94217       46.79081
C         60.51736       81.65097       48.29714
C         59.36588       82.34300       48.95565
O         58.38452       81.61335       49.51036
O         59.29219       83.56170       48.95999
H         60.65909       79.36636       46.60243
H         61.34850       81.55921       44.89343
H         59.48619       81.64815       46.39866
H         60.59933       83.03865       46.63564
H         61.46091       82.00366       48.76275
H         60.41823       80.56041       48.47368
N         63.54938       81.10096       47.42948
C         64.90733       81.43465       47.79456
H         65.60176       81.14981       46.97498
H         64.98814       82.52482       47.98880
H         65.19756       80.88287       48.71337
H         63.03230       80.44037       48.02862
Ca        57.15539       83.26671       51.29488
O         55.55511       81.32122       48.72686
H         55.39479       80.38373       49.00135
H         55.50166       81.30434       47.73834
O         57.86088       86.09461       51.13280
H         58.42494       86.06386       51.94476
H         56.94208       85.92997       51.46331

Ca 1.0



