%chk=apoCaM-CA-Ng.loop3.water5.frame74.chk
%nprocshared=20
%mem=10GB
%nosave
#b3lyp/svp scf=(tight,noincore,xqc) Test 
#IOP(5/87=12) Density=Current Pop=(MK,readradii) iop(6/33=2) iop(6/42=6)

apoCaM-CA-Ng.loop3.water5.frame74 

   0  1 
C         67.71087       60.84559       54.57273
C         68.63685       60.27767       53.54083
O         68.42880       60.55223       52.37038
H         66.67604       60.50424       54.35274
H         67.98196       60.50811       55.59402
H         67.73997       61.95413       54.53383
N         69.67150       59.45618       53.89674
C         70.56541       58.79585       52.94189
C         69.82536       57.76873       52.08331
O         70.41032       57.25074       51.14182
C         71.31916       59.82223       52.06565
C         72.02805       60.85158       52.90060
O         71.76055       62.03536       52.76904
O         72.96045       60.47550       53.79666
H         69.82871       59.26671       54.89831
H         71.33861       58.23363       53.51312
H         70.62239       60.32770       51.36572
H         72.07607       59.28977       51.44940
N         68.55003       57.38435       52.38396
C         67.77811       56.42712       51.59727
C         67.39129       56.98381       50.22950
O         66.93842       56.20469       49.40231
C         66.53074       56.03028       52.43187
C         65.49319       55.12936       51.74970
C         64.44144       54.68653       52.77828
C         63.27922       53.93472       52.12176
N         62.35112       53.43217       53.13538
H         68.11282       57.75420       53.23910
H         68.39701       55.51483       51.44330
H         65.99385       56.95295       52.74967
H         66.91024       55.52110       53.34634
H         65.97788       54.22879       51.31548
H         64.99706       55.70791       50.94026
H         64.02502       55.57297       53.30671
H         64.93850       54.03028       53.52662
H         63.66503       53.07943       51.52554
H         62.74104       54.62915       51.43756
H         61.99800       54.21646       53.73082
H         61.53992       52.97295       52.66238
H         62.83414       52.72568       53.73730
N         67.47804       58.31490       49.93468
C         66.99406       58.88772       48.68563
C         68.04859       59.78163       48.05131
O         68.62960       60.60305       48.74898
C         65.71250       59.69029       48.97946
C         65.00373       60.03911       47.70060
O         64.62483       59.14783       46.95738
O         64.78125       61.31658       47.35436
H         67.80247       58.96973       50.65444
H         66.70768       58.08104       47.97579
H         65.94960       60.59683       49.57837
H         65.01372       59.06058       49.57236
N         68.29739       59.72193       46.70931
C         69.27479       60.56455       46.02779
C         69.01400       62.06491       46.10480
O         69.86576       62.80777       45.63864
H         67.78128       59.03563       46.14036
H         69.32168       60.28051       44.95434
H         70.27142       60.36481       46.47758
N         67.90922       62.59006       46.70984
C         67.73612       64.01134       46.98465
C         67.82791       64.19266       48.48395
O         68.71309       64.90439       48.93905
C         66.38018       64.53668       46.46288
C         66.27753       64.53117       44.96000
N         67.09878       65.29759       44.20629
O         65.41931       63.85556       44.41568
H         67.19072       61.95835       47.07657
H         68.54999       64.61589       46.52626
H         66.23501       65.58637       46.80114
H         65.55691       63.92829       46.89398
H         67.81177       65.89808       44.64413
H         67.00663       65.30561       43.17958
N         66.94995       63.56177       49.31514
C         66.99179       63.67210       50.76140
C         65.75993       64.36708       51.26901
O         64.91382       64.76193       50.47489
H         66.20133       62.98063       48.91204
H         67.87071       64.26245       51.09781
H         67.06888       62.65669       51.20366
N         65.61792       64.60641       52.60175
C         64.51406       65.40320       53.12060
C         63.16585       64.72121       52.88310
O         63.11688       63.57470       52.46083
C         64.77109       65.76524       54.60721
C         63.79769       66.78772       55.14712
C         63.69733       68.06088       54.55106
C         62.96219       66.47369       56.23072
C         62.75830       68.98630       55.01314
C         62.02842       67.40495       56.69522
C         61.91885       68.66198       56.08258
O         61.01201       69.56299       56.51049
H         66.36124       64.28612       53.24275
H         64.52045       66.35003       52.53782
H         65.78767       66.20673       54.69654
H         64.75107       64.83169       55.21112
H         64.32853       68.33143       53.71427
H         63.02284       65.50410       56.70814
H         62.67826       69.95384       54.53308
H         61.38505       67.14488       57.52579
H         60.40730       69.37629       57.24256
N         62.02391       65.43586       53.06585
C         60.68452       64.98960       52.72518
C         60.21878       65.91299       51.61356
O         59.95753       65.43988       50.51736
C         59.76214       65.04651       53.98456
C         60.28427       64.06629       55.06838
C         58.29861       64.72656       53.61731
C         59.53778       64.15720       56.40260
H         62.10441       66.40165       53.39046
H         60.69162       63.94411       52.34126
H         59.79410       66.07896       54.39844
H         61.34844       64.29242       55.28404
H         60.22757       63.02205       54.69032
H         57.92166       65.42315       52.84477
H         58.20492       63.69069       53.23013
H         57.63029       64.85081       54.49331
H         59.99950       63.45619       57.12988
H         59.60664       65.18677       56.81327
H         58.47205       63.87122       56.29924
N         60.15571       67.26044       51.82197
C         59.76337       68.23303       50.80996
C         58.32278       68.02937       50.40469
O         58.03264       68.08172       49.21801
C         59.95184       69.66064       51.34004
O         61.30181       69.85967       51.66252
H         60.41127       67.62298       52.75283
H         60.42315       68.13717       49.91718
H         59.31857       69.81470       52.24239
H         59.65692       70.38159       50.54412
H         61.36729       70.77706       52.03342
N         57.37817       67.73049       51.34686
C         55.96577       67.47877       51.06644
C         55.71373       66.31741       50.10182
O         54.54768       66.09156       49.79025
C         55.31082       68.76627       50.54670
H         57.66996       67.67464       52.33352
H         55.46237       67.22994       52.02736
H         55.73341       69.07324       49.56828
H         54.21602       68.62056       50.42495
H         55.46604       69.58854       51.27761
N         56.71403       65.56213       49.55652
C         56.50144       64.58858       48.49707
C         57.04723       63.21800       48.83755
O         57.72842       63.05105       49.84409
C         57.19145       65.10269       47.22876
H         57.68579       65.71513       49.83941
H         55.41468       64.48077       48.28697
H         56.78252       66.09882       46.95624
H         58.28541       65.20901       47.40405
H         57.03344       64.41305       46.37438
N         56.74269       62.17202       48.01940
C         57.18068       60.79439       48.19596
C         56.87112       60.30282       49.59756
O         57.76517       59.84549       50.29658
C         58.66285       60.60987       47.80325
C         58.92414       61.05984       46.35746
C         60.30182       60.66401       45.91958
O         61.37834       61.09429       46.60035
O         60.45010       59.93689       44.95040
H         56.10945       62.35183       47.22296
H         56.59745       60.16279       47.48888
H         58.89686       59.52392       47.88159
H         59.33483       61.16667       48.49282
H         58.81540       62.16338       46.28173
H         58.18536       60.58476       45.67474
N         55.59916       60.39281       50.07388
C         55.21500       59.97039       51.40490
H         54.42066       59.19987       51.32885
H         56.06519       59.54319       51.97731
H         54.82126       60.84396       51.96517
H         54.86596       60.79526       49.47130
Ca        63.87707       61.65889       45.31539
O         61.83298       62.32717       43.12327
H         62.22822       62.56131       42.24630
H         61.91740       63.15374       43.66202
O         66.01265       59.51092       44.20097
H         66.14833       58.54153       44.05220
H         66.82553       59.93688       43.82965
O         64.96062       61.61049       42.33155
H         64.51755       61.22023       41.53701
H         65.80678       61.99061       41.98549
O         63.11086       58.52841       44.43674
H         63.11656       57.69669       43.90014
H         62.80850       59.22930       43.80619
O         62.79115       63.94630       47.07838
H         62.75373       63.16489       47.68540
H         62.06599       63.78815       46.42286

Ca 1.0



