%chk=apoCaM-CA-Ng.loop1.water2.frame452.chk
%nprocshared=20
%mem=10GB
%nosave
#b3lyp/svp scf=(tight,noincore,xqc) Test 
#IOP(5/87=12) Density=Current Pop=(MK,readradii) iop(6/33=2) iop(6/42=6)

apoCaM-CA-Ng.loop1.water2.frame452 

   0  1 
C         81.66061       88.87541       75.16019
C         80.87350       88.82088       73.88762
O         80.45217       87.74001       73.49922
H         82.67652       89.27029       74.95053
H         81.14828       89.53695       75.88852
H         81.75764       87.86042       75.60325
N         80.64393       89.96144       73.17426
C         79.90289       89.97079       71.91745
C         80.82297       90.39818       70.77618
O         80.45642       91.25722       69.99030
C         78.66208       90.88537       72.03307
C         77.75597       90.48118       73.16516
O         78.18906       90.54341       74.43959
O         76.61347       90.11911       72.93789
H         81.01760       90.85085       73.53645
H         79.54596       88.95159       71.69091
H         78.09508       90.84121       71.07737
H         78.98017       91.93847       72.20059
N         82.08868       89.89373       70.69133
C         83.07833       90.30173       69.69341
C         83.77152       89.06290       69.11398
O         84.10513       88.19150       69.90502
C         84.13156       91.25751       70.32778
C         83.59309       92.69000       70.57364
C         82.82127       92.88462       71.88722
C         82.01693       94.19783       71.92954
N         82.84746       95.38823       71.75285
H         82.39977       89.24576       71.43057
H         82.60990       90.87574       68.87874
H         84.92650       91.38808       69.57020
H         84.62819       90.83277       71.22631
H         82.97300       92.97894       69.69919
H         84.45386       93.39193       70.61361
H         83.53130       92.82345       72.73986
H         82.08655       92.09248       72.02631
H         81.49582       94.25635       72.91112
H         81.23449       94.17517       71.13804
H         82.24217       96.23561       71.85146
H         83.59767       95.41765       72.47960
H         83.26748       95.40234       70.79603
N         84.12309       88.89237       67.79368
C         83.96543       89.83779       66.68829
C         84.63474       91.16769       67.00609
O         83.94709       92.16885       67.13313
C         82.50500       89.95587       66.18863
C         82.02447       88.67717       65.55486
O         80.88785       88.09425       65.96918
O         82.63558       88.19132       64.61595
H         84.62995       88.02375       67.55974
H         84.50514       89.44553       65.79902
H         82.48163       90.71378       65.37812
H         81.80364       90.27564       66.98106
N         85.98908       91.29294       67.12276
C         86.92034       90.19814       66.87325
C         88.37392       90.64091       66.88602
O         88.65711       91.77828       67.23485
H         86.35315       92.23524       67.33138
H         86.72311       89.81668       65.85124
H         86.77059       89.37968       67.60782
N         89.38066       89.83078       66.44811
C         89.20909       88.47484       65.93821
C         89.33436       88.50524       64.42808
O         90.30480       89.04769       63.91678
C         90.20062       87.50741       66.62556
C         91.66054       87.82567       66.41848
O         92.43465       88.13958       67.47442
O         92.16335       87.75703       65.30875
H         90.32969       90.23578       66.40431
H         88.20117       88.08052       66.18244
H         90.01364       86.47149       66.26821
H         89.98843       87.53132       67.71675
N         88.36202       87.96484       63.63826
C         88.40884       88.06145       62.19105
C         88.18034       89.49379       61.78166
O         89.06964       90.11815       61.22246
H         87.56753       87.46843       64.07013
H         87.60210       87.44335       61.73948
H         89.38408       87.67196       61.82514
N         86.97175       90.06588       62.03587
C         86.62937       91.45459       61.74094
C         86.13725       92.14282       63.01423
O         86.08710       91.50796       64.05649
C         85.60289       91.51595       60.57275
C         84.35255       90.65509       60.78507
O         86.21940       91.16461       59.35809
H         86.24205       89.47409       62.46394
H         87.52624       92.02089       61.40650
H         85.26923       92.56756       60.45741
H         86.56227       90.23753       59.44141
H         83.85600       90.92975       61.73302
H         83.64492       90.81042       59.94284
H         84.61394       89.57586       60.81136
N         85.78256       93.46116       63.00355
C         85.37577       94.20444       64.19629
C         83.91677       94.62870       64.06338
O         83.62065       95.81472       64.08455
C         86.33942       95.41705       64.43341
C         86.38923       96.40939       63.22933
C         87.75650       94.91420       64.76879
C         86.99992       97.76200       63.59609
H         85.81223       93.97058       62.10995
H         85.42198       93.56315       65.10420
H         85.94841       95.95438       65.32667
H         85.37647       96.64668       62.85825
H         86.94258       95.96272       62.37619
H         88.19416       94.36956       63.90431
H         88.43103       95.75433       65.02977
H         87.72896       94.22853       65.64148
H         86.95694       98.43455       62.71297
H         86.40995       98.23031       64.41420
H         88.05663       97.66953       63.91094
N         82.93333       93.69225       63.93839
C         81.54499       94.05838       63.64295
C         80.57880       93.81220       64.78943
O         79.43144       94.21822       64.66295
C         81.08611       93.35602       62.34111
C         80.95471       91.83326       62.49486
O         81.99620       93.62727       61.30607
H         83.19271       92.69792       64.01027
H         81.48497       95.15259       63.45866
H         80.07828       93.73267       62.05241
H         81.90740       94.59185       61.08868
H         80.62589       91.38846       61.53233
H         81.91304       91.36125       62.77922
H         80.20242       91.57836       63.26918
N         80.95859       93.17984       65.93523
C         80.10407       92.96454       67.10245
C         78.87385       92.11629       66.76539
O         78.63760       91.81804       65.60390
C         79.71981       94.32619       67.75550
C         80.95847       95.18299       68.04752
O         79.04009       94.10949       68.96492
H         81.92223       92.84116       66.01092
H         80.70928       92.39786       67.83850
H         79.06139       94.88458       67.05204
H         78.49138       94.91737       69.14386
H         81.64193       94.65342       68.74011
H         81.50794       95.42202       67.11337
H         80.65093       96.14103       68.51757
N         78.04659       91.68117       67.75857
C         76.80691       90.94612       67.52574
C         76.87650       89.51189       68.04009
O         75.89608       88.79545       67.88382
C         75.60263       91.77255       68.04064
C         75.65977       92.22556       69.51212
C         74.47475       93.16043       69.82202
C         74.56365       93.83449       71.20206
N         74.49175       92.87598       72.30231
H         78.30383       91.87503       68.73298
H         76.62611       90.82968       66.43438
H         74.66002       91.21236       67.85434
H         75.57085       92.69396       67.41664
H         76.58433       92.81235       69.68281
H         75.65911       91.34116       70.18294
H         73.51538       92.60750       69.72519
H         74.47393       93.98506       69.07466
H         73.71575       94.54947       71.29413
H         75.50809       94.41954       71.27429
H         75.31704       92.23922       72.28149
H         74.50430       93.39985       73.20731
H         73.60582       92.32404       72.24170
N         78.03614       88.97871       68.52804
C         78.21656       87.54711       68.75426
C         77.34075       87.03084       69.87646
O         77.47043       87.49676       70.99969
C         79.70786       87.24541       69.03518
C         80.10290       85.76214       69.11101
C         79.82925       85.00650       67.83669
O         78.68396       84.73094       67.51847
O         80.84415       84.61158       67.04205
H         78.86424       89.58295       68.62169
H         77.95572       87.04180       67.80153
H         80.01885       87.72707       69.97693
H         80.31620       87.70470       68.23662
H         79.60668       85.25123       69.96324
H         81.19636       85.74341       69.30416
N         76.44060       86.03583       69.63648
C         75.60281       85.44698       70.66119
H         74.53594       85.57757       70.38598
H         75.82422       84.36071       70.73163
H         75.77037       85.90109       71.66010
H         76.35019       85.65603       68.68229
Ca        82.98260       85.27221       67.38568
O         82.50435       85.54567       62.92228
H         82.15116       86.28007       62.35962
H         82.97861       84.95239       62.28710
O         79.65724       84.57142       64.03934
H         78.98668       84.94837       64.66269
H         79.73059       83.61879       64.29961

Ca 1.0



