%chk=apoCaM-CA-Ng.loop1.water3.frame1499.chk
%nprocshared=20
%mem=10GB
%nosave
#b3lyp/svp scf=(tight,noincore,xqc) Test 
#IOP(5/87=12) Density=Current Pop=(MK,readradii) iop(6/33=2) iop(6/42=6)

apoCaM-CA-Ng.loop1.water3.frame1499 

   0  1 
C         66.83571       89.35935       46.18697
C         68.31743       89.17199       46.30775
O         68.89313       89.59947       47.29779
H         66.60751       89.94792       45.27382
H         66.34152       88.36783       46.11805
H         66.43319       89.89853       47.07090
N         69.00333       88.53689       45.31698
C         70.44505       88.31020       45.35582
C         71.18376       89.09163       44.27637
O         72.40691       89.08932       44.30725
C         70.73706       86.79602       45.30092
C         70.15719       86.11950       44.08617
O         69.23118       85.15230       44.23703
O         70.51910       86.43655       42.96463
H         68.47385       88.20091       44.49729
H         70.86113       88.68772       46.31566
H         70.29035       86.32864       46.20597
H         71.83307       86.61593       45.33453
N         70.52848       89.81490       43.32103
C         71.20297       90.71636       42.39720
C         70.34721       91.96307       42.17325
O         70.01081       92.23756       41.02799
C         71.52454       90.01773       41.05537
C         72.73382       89.06873       41.12694
C         73.09640       88.51736       39.73802
C         72.08321       87.47608       39.24167
N         72.40100       87.04654       37.88148
H         69.49932       89.80596       43.28957
H         72.17195       91.05283       42.80163
H         71.83061       90.80088       40.32515
H         70.60768       89.52452       40.67298
H         72.57461       88.23593       41.84161
H         73.60276       89.67020       41.47812
H         74.09343       88.02855       39.79158
H         73.17478       89.36246       39.01727
H         71.05356       87.88757       39.24483
H         72.11081       86.60016       39.92801
H         72.29776       87.85522       37.22544
H         73.37623       86.67304       37.83168
H         71.73097       86.29614       37.59706
N         69.93915       92.81119       43.16456
C         70.11666       92.66981       44.61420
C         71.54512       92.47592       45.09736
O         72.49546       92.71142       44.36666
C         69.48768       93.87882       45.37462
C         69.86939       95.24617       44.84098
O         70.68363       96.10012       45.48850
O         69.34522       95.64599       43.81464
H         69.37985       93.60289       42.82784
H         69.57831       91.74592       44.91905
H         69.72175       93.80985       46.45779
H         68.38363       93.83175       45.27563
N         71.74015       92.00610       46.36741
C         73.03626       91.71774       46.96294
C         73.28128       92.59032       48.16836
O         72.44105       93.42380       48.47197
H         70.91166       91.81776       46.95309
H         73.85732       91.89090       46.23626
H         73.06008       90.65024       47.27171
N         74.45563       92.51221       48.86040
C         74.82281       93.45933       49.91958
C         75.41874       92.75870       51.13861
O         75.69467       91.56919       51.04767
C         75.80487       94.47259       49.28046
C         75.05032       95.20107       48.21028
O         73.93116       95.86739       48.55878
O         75.35115       95.06861       47.03500
H         75.17267       91.84919       48.52324
H         73.91767       93.99690       50.27098
H         76.67707       93.92717       48.85418
H         76.19912       95.22495       49.97592
N         75.65771       93.38859       52.33415
C         75.28684       94.76180       52.66454
C         73.78934       94.94096       52.75117
O         73.07627       93.96176       52.90697
H         76.11476       92.84587       53.08303
H         75.73614       95.48037       51.96480
H         75.69751       95.03572       53.65984
N         73.24100       96.18629       52.64297
C         71.79777       96.43259       52.69211
C         71.10279       95.60041       51.62849
O         71.56080       95.59461       50.49663
C         71.46633       97.93602       52.50626
C         72.04386       98.78659       53.64926
O         70.06877       98.09251       52.49283
H         73.88046       96.97833       52.48089
H         71.40785       96.13499       53.69048
H         71.88727       98.27811       51.53252
H         69.88084       99.02448       52.20591
H         71.61891       98.45850       54.62215
H         73.14844       98.71673       53.69933
H         71.78029       99.85451       53.49440
N         70.00190       94.85338       51.95200
C         69.31186       93.91395       51.06707
C         68.80222       94.56989       49.79141
O         69.60194       94.97762       48.96071
C         70.21908       92.68299       50.76015
C         70.51690       91.89669       52.05998
C         69.58693       91.75913       49.69422
C         71.57483       90.80445       51.88068
H         69.63092       94.93223       52.91076
H         68.42610       93.52156       51.61486
H         71.17455       93.05992       50.36849
H         69.57801       91.44609       52.44948
H         70.90430       92.59177       52.83196
H         69.41455       92.30622       48.74586
H         70.26082       90.92184       49.42916
H         68.61607       91.35446       50.04875
H         71.24639       90.02090       51.16986
H         72.52721       91.25059       51.52173
H         71.76039       90.31052       52.85693
N         67.46286       94.60582       49.53118
C         66.92436       94.99757       48.23288
C         66.08440       96.26119       48.28602
O         65.72632       96.74996       47.22323
C         66.11899       93.81288       47.62823
C         64.80466       93.53334       48.37083
O         66.88524       92.63628       47.66899
H         66.80983       94.27466       50.25565
H         67.76393       95.22181       47.53916
H         65.84082       94.05310       46.57517
H         67.52775       92.66936       46.92039
H         64.13489       94.41802       48.34195
H         64.27631       92.68795       47.88149
H         64.98749       93.25358       49.42818
N         65.69273       96.83180       49.46403
C         64.86628       98.03413       49.49415
C         65.69779       99.21510       49.01725
O         66.64963       99.58824       49.68816
C         64.24958       98.25961       50.89706
C         63.28722       97.11814       51.25936
O         65.25108       98.33709       51.88064
H         65.94723       96.38157       50.35323
H         64.00668       97.88294       48.80222
H         63.63727       99.19273       50.88386
H         65.44802       99.29785       52.02815
H         63.81124       96.13920       51.29164
H         62.83354       97.30153       52.25569
H         62.46831       97.05189       50.51057
N         65.43413       99.78663       47.80431
C         66.24798      100.81431       47.15383
C         67.68939      100.36283       46.93079
O         68.09586       99.32056       47.42453
C         66.22730      102.16698       47.90725
C         64.83161      102.80453       47.96679
C         64.93200      104.26367       48.44415
C         63.56710      104.96385       48.42907
N         63.70684      106.38426       48.75450
H         64.63553       99.42520       47.26098
H         65.81620      100.98646       46.14219
H         66.87544      102.87163       47.34474
H         66.65080      102.07158       48.93031
H         64.16572      102.21076       48.63016
H         64.40035      102.81500       46.94192
H         65.60717      104.81265       47.75028
H         65.36607      104.30720       49.46708
H         62.88873      104.47456       49.16212
H         63.11533      104.87475       47.41591
H         62.76356      106.83501       48.74090
H         64.12886      106.50182       49.70386
H         64.31051      106.85612       48.04134
N         68.52529      101.13295       46.17547
C         69.94915      100.85965       46.00806
C         70.21276       99.47322       45.43531
O         70.88936       98.72008       46.11872
C         70.64660      101.95600       45.17294
C         70.64097      103.32376       45.86976
C         71.29590      104.35474       44.99562
O         72.57920      104.20489       44.61485
O         70.66595      105.33091       44.62092
H         68.13129      101.97034       45.72231
H         70.42499      100.88790       47.01613
H         70.15448      102.07131       44.19287
H         71.70632      101.65847       45.00792
H         71.19339      103.25729       46.83149
H         69.60005      103.64393       46.08656
N         69.74758       99.01083       44.23803
C         68.91932       99.74222       43.30797
H         67.98242      100.07555       43.79713
H         69.47286      100.58997       42.87040
H         68.64998       99.07791       42.45882
H         69.99047       98.04808       43.97040
Ca        72.17157       95.91345       47.15645
O         73.57394       95.78902       44.39843
H         74.04295       96.34758       45.06728
H         73.23823       95.01893       44.91959
O         73.46619       98.84547       47.85088
H         74.44893       98.80219       47.96374
H         73.30030       99.73331       47.44516
O         70.57491       97.97262       49.14181
H         70.25528       98.83693       48.78408
H         69.82361       97.64233       49.69529

Ca 1.0



