%chk=apoCaM-CA-Ng.loop1.water3.frame12.chk
%nprocshared=20
%mem=10GB
%nosave
#b3lyp/svp scf=(tight,noincore,xqc) Test 
#IOP(5/87=12) Density=Current Pop=(MK,readradii) iop(6/33=2) iop(6/42=6)

apoCaM-CA-Ng.loop1.water3.frame12 

   0  1 
C         52.52848       53.69176       73.00801
C         52.03683       55.01282       72.48706
O         52.81694       55.74455       71.89593
H         53.35459       53.85919       73.72978
H         51.72026       53.13239       73.52665
H         52.89710       53.07033       72.16559
N         50.73960       55.37874       72.67165
C         50.16868       56.64157       72.21538
C         49.60663       57.44301       73.38756
O         48.88109       58.39867       73.14907
C         49.09830       56.37927       71.12759
C         47.92406       55.55419       71.57564
O         46.80154       56.03384       71.56016
O         48.09064       54.26584       71.93047
H         50.11923       54.72718       73.17450
H         50.93546       57.27758       71.72101
H         49.57063       55.86418       70.26366
H         48.72780       57.36263       70.76133
N         49.93534       57.14079       74.67976
C         49.37309       57.81396       75.84484
C         50.46129       58.60934       76.56037
O         51.50999       58.02532       76.79888
C         48.80819       56.76662       76.82605
C         47.81763       55.74746       76.23649
C         46.59920       56.36930       75.53836
C         45.47344       55.34172       75.29847
N         45.89020       54.19427       74.49123
H         50.62322       56.39627       74.86573
H         48.53293       58.45750       75.55317
H         48.31145       57.30683       77.66065
H         49.64451       56.17564       77.26099
H         47.47008       55.12788       77.09146
H         48.34810       55.08395       75.51961
H         46.91591       56.83173       74.57798
H         46.17171       57.16507       76.18467
H         44.62850       55.85649       74.78978
H         45.10660       54.97479       76.28188
H         46.65551       53.65990       74.96059
H         45.07519       53.55000       74.37316
H         46.19628       54.51365       73.54969
N         50.33782       59.90251       77.00156
C         49.16959       60.78015       76.92888
C         47.95662       60.14932       77.60437
O         46.96509       59.90559       76.92956
C         48.87558       61.25887       75.49121
C         50.06669       61.90778       74.84794
O         50.63380       62.99182       75.40492
O         50.51569       61.46411       73.80368
H         51.15410       60.29816       77.49550
H         49.40035       61.71476       77.48843
H         48.06076       62.01075       75.55162
H         48.52546       60.43983       74.84081
N         47.91283       59.85564       78.93576
C         48.95355       60.15441       79.90768
C         48.40517       61.07952       80.97954
O         47.22476       60.98270       81.28196
H         47.05515       59.40825       79.29734
H         49.85076       60.59560       79.44513
H         49.26753       59.20287       80.38899
N         49.18254       61.95932       81.67813
C         50.62588       62.09794       81.51997
C         51.04274       62.95959       80.33017
O         52.23803       63.05122       80.09165
C         51.25831       62.63547       82.82769
C         50.84203       64.02965       83.23280
O         50.07078       64.69082       82.55515
O         51.33474       64.55422       84.37055
H         48.72070       62.47334       82.44523
H         51.05723       61.08066       81.38827
H         52.36503       62.62260       82.72773
H         50.98712       61.94076       83.65244
N         50.14577       63.63261       79.54771
C         50.61134       64.44609       78.42815
C         49.50196       65.10504       77.63382
O         48.33725       64.99628       77.98652
H         49.14014       63.55929       79.74939
H         51.18273       63.79049       77.74009
H         51.29057       65.24301       78.80125
N         49.82450       65.79202       76.49691
C         48.83997       66.41839       75.62291
C         48.80028       65.61626       74.30739
O         49.80223       66.06822       73.44586
C         49.17402       67.93102       75.42688
C         48.24175       68.63113       74.43045
O         50.49605       68.09985       74.97325
H         50.81446       65.81953       76.20899
H         47.83202       66.34268       76.08416
H         49.04930       68.44558       76.40765
H         51.07946       68.18145       75.77203
H         48.50675       69.70752       74.36258
H         48.35618       68.20714       73.41067
H         47.18295       68.53653       74.74505
N         47.48641       65.69596       73.64010
C         47.45755       64.80524       72.45708
C         47.69725       65.61691       71.19664
O         47.59154       66.83540       71.21096
C         46.18809       63.89312       72.36675
C         44.86852       64.70314       72.30627
C         46.19710       62.86769       73.51880
C         43.62548       63.82187       72.13366
H         46.75834       65.42388       74.33425
H         48.31113       64.09204       72.51114
H         46.26660       63.29943       71.42839
H         44.91349       65.39027       71.43470
H         44.73873       65.31293       73.22487
H         45.38277       62.12490       73.41611
H         47.14351       62.29219       73.48091
H         46.10356       63.34770       74.51402
H         43.71470       63.19726       71.21943
H         43.46851       63.16401       73.01323
H         42.72397       64.46245       72.04067
N         48.10972       64.97036       70.07710
C         48.48057       65.62070       68.82528
C         47.61848       65.11647       67.69311
O         47.24118       65.91830       66.85113
C         49.97626       65.34566       68.51236
C         50.45275       66.04762       67.23232
O         50.20575       63.97080       68.36313
H         48.22009       63.94981       70.14922
H         48.36751       66.72648       68.89540
H         50.59924       65.75195       69.34446
H         50.29433       63.59713       69.27444
H         49.91018       65.66519       66.34107
H         50.30030       67.14506       67.30519
H         51.53539       65.85161       67.07630
N         47.32761       63.78671       67.57164
C         46.70105       63.19203       66.40719
C         47.72190       63.26234       65.29194
O         47.50135       63.89271       64.26754
C         45.30534       63.78957       66.09014
C         44.39666       63.74685       67.32993
O         44.72450       63.03847       65.05481
H         47.62242       63.12537       68.30155
H         46.53683       62.10886       66.61496
H         45.40674       64.84467       65.75871
H         43.90015       63.51552       64.77486
H         43.39771       64.16437       67.08340
H         44.27057       62.70404       67.69056
H         44.82394       64.36144       68.15110
N         48.89734       62.59160       65.47145
C         49.98724       62.54340       64.51035
C         51.33512       62.81010       65.17858
O         52.06243       63.66106       64.68625
C         50.01370       61.15606       63.83979
C         48.77502       60.94149       62.95147
C         48.77102       59.54563       62.32157
C         47.56493       59.36673       61.38786
N         47.50356       58.00024       60.87079
H         48.99126       62.01838       66.32354
H         49.84145       63.29057       63.69695
H         50.07879       60.36299       64.61677
H         50.91193       61.08322       63.18637
H         48.77261       61.71203       62.14788
H         47.84822       61.05409       63.55355
H         48.72344       58.79150       63.13676
H         49.70514       59.38730       61.73897
H         47.64622       60.08247       60.53858
H         46.62359       59.58541       61.93934
H         47.36751       57.32901       61.66167
H         46.69231       57.91664       60.21643
H         48.38295       57.76542       60.35601
N         51.76376       62.07545       66.25430
C         53.14332       62.10390       66.75644
C         53.72759       60.70316       66.67491
O         53.02099       59.77483       66.30075
C         53.24745       62.65623       68.20121
C         52.60648       61.75757       69.27341
C         52.69680       62.38375       70.63517
O         52.23043       63.63136       70.79014
O         53.12970       61.76171       71.59237
H         51.11328       61.40343       66.68686
H         53.76108       62.77365       66.12007
H         52.78972       63.66907       68.21811
H         54.31915       62.78635       68.46682
H         53.08005       60.75286       69.29469
H         51.53222       61.63064       69.03621
N         55.01577       60.46508       67.03612
C         55.56715       59.12877       67.02146
H         56.62643       59.15100       67.35000
H         54.99157       58.47943       67.71700
H         55.51266       58.70755       65.99536
H         55.61788       61.24376       67.34108
Ca        50.86398       64.36672       72.39986
O         52.28214       67.01063       71.95345
H         52.31503       67.01150       72.94341
H         51.38256       67.36151       71.73320
O         54.54047       64.93735       73.44820
H         55.22778       64.58048       74.06535
H         54.86708       65.84134       73.21040
O         53.73235       62.12509       74.73062
H         53.98798       61.17916       74.58888
H         53.27230       62.12921       75.60723

Ca 1.0



