%chk=apoCaM-CA-Ng.loop3.water5.frame265.chk
%nprocshared=20
%mem=10GB
%nosave
#b3lyp/svp scf=(tight,noincore,xqc) Test 
#IOP(5/87=12) Density=Current Pop=(MK,readradii) iop(6/33=2) iop(6/42=6)

apoCaM-CA-Ng.loop3.water5.frame265 

   0  1 
C         46.26110       13.62652       11.17661
C         47.21522       12.49712       10.93408
O         48.31006       12.75014       10.46090
H         45.29316       13.26058       11.57854
H         46.70313       14.35040       11.89068
H         46.06316       14.13978       10.21048
N         46.85095       11.21054       11.19411
C         47.66364       10.04677       10.85684
C         47.88828       10.01347        9.35453
O         49.01592        9.90442        8.89141
C         48.97588        9.98772       11.67262
C         48.70904        9.95318       13.15117
O         48.06088        9.04068       13.63916
O         49.19778       10.92271       13.94787
H         45.91605       11.03122       11.59158
H         47.07366        9.13621       11.10868
H         49.62043       10.85987       11.43601
H         49.53741        9.06694       11.40093
N         46.80788       10.11208        8.53083
C         46.88592       10.04419        7.07441
C         47.69060       11.19027        6.46138
O         48.02669       11.08784        5.28933
C         45.46029       10.03614        6.46983
C         44.64707        8.80232        6.91062
C         43.19980        8.86943        6.40903
C         42.41934        7.61837        6.84000
N         41.02778        7.68492        6.39606
H         45.88405       10.21587        8.97640
H         47.39507        9.09117        6.80760
H         45.51627       10.03307        5.35925
H         44.93791       10.96628        6.78944
H         44.60948        8.72633        8.01674
H         45.14291        7.88841        6.51742
H         43.18857        8.94856        5.30063
H         42.70843        9.77134        6.83784
H         42.44190        7.52503        7.94922
H         42.90166        6.71569        6.40333
H         40.54966        8.50452        6.83628
H         40.98463        7.76679        5.35448
H         40.53448        6.81020        6.68798
N         48.00442       12.32362        7.15690
C         48.77222       13.42192        6.57055
C         50.21151       12.99691        6.31918
O         50.72263       12.16277        7.05506
C         48.73439       14.65877        7.49183
C         49.34195       15.87003        6.83874
O         50.38749       16.49779        7.40607
O         48.87147       16.30494        5.80007
H         47.64203       12.43404        8.11130
H         48.27973       13.70715        5.61374
H         49.25182       14.43666        8.44966
H         47.67580       14.90585        7.72441
N         50.92594       13.52493        5.28289
C         52.28550       13.10342        4.97859
C         53.31462       13.48806        6.02640
O         54.42236       12.97715        5.93716
H         50.47317       14.20381        4.65317
H         52.61415       13.53822        4.01021
H         52.27907       11.99745        4.86367
N         53.05441       14.39093        7.01886
C         54.02403       14.74352        8.05721
C         53.47937       14.48345        9.45993
O         54.21247       14.68935       10.41749
C         54.37679       16.24692        7.98238
C         54.70720       16.74497        6.59945
N         55.70657       16.20317        5.87003
O         54.05732       17.66811        6.13362
H         52.14587       14.86741        7.02508
H         54.95435       14.14975        7.92481
H         55.23452       16.45096        8.66091
H         53.50784       16.83640        8.34883
H         56.26899       15.42405        6.23764
H         55.90824       16.56406        4.92524
N         52.18111       14.11377        9.66581
C         51.54275       14.06329       10.96907
C         51.44836       15.43597       11.60603
O         52.16190       16.34703       11.20861
H         51.56960       13.90809        8.86811
H         52.03153       13.33267       11.64714
H         50.50369       13.72333       10.80257
N         50.53422       15.66625       12.58949
C         50.37859       16.96661       13.24598
C         50.05468       18.08201       12.26306
O         49.83942       17.82459       11.08798
C         49.27298       16.89064       14.32535
C         49.64008       15.92074       15.41771
C         50.75729       16.17428       16.23041
C         48.87730       14.76230       15.63754
C         51.11202       15.28030       17.24140
C         49.23603       13.86643       16.64954
C         50.35348       14.12069       17.45316
O         50.68875       13.24728       18.42338
H         49.92854       14.88163       12.87812
H         51.34923       17.23089       13.71855
H         48.31998       16.59455       13.83140
H         49.10420       17.87868       14.80319
H         51.35321       17.06643       16.08238
H         48.01131       14.54807       15.02311
H         51.97683       15.49106       17.85756
H         48.64558       12.97301       16.80784
H         51.45601       13.38777       18.99658
N         50.02918       19.37267       12.70565
C         49.79578       20.52480       11.84305
C         50.99673       21.45838       11.94633
O         51.59461       21.76087       10.92310
C         48.47115       21.24976       12.22288
C         47.29465       20.23762       12.27115
C         48.17283       22.36713       11.19686
C         45.95970       20.85656       12.69053
H         50.19291       19.54666       13.70720
H         49.68568       20.19663       10.78462
H         48.58658       21.69912       13.23407
H         47.52538       19.44858       13.01823
H         47.17104       19.74983       11.27920
H         47.29198       22.96765       11.49862
H         49.01384       23.07390       11.09888
H         47.98777       21.93277       10.19135
H         46.05569       21.34442       13.68348
H         45.60223       21.59611       11.94617
H         45.19124       20.05814       12.75865
N         51.42479       21.93483       13.15818
C         52.56670       22.84044       13.29022
C         52.24325       24.23672       12.78323
O         53.16314       25.02481       12.61130
C         53.02740       22.94128       14.75032
O         53.37970       21.67053       15.22206
H         50.94387       21.62345       14.01473
H         53.40876       22.41687       12.69679
H         52.19934       23.35978       15.36685
H         53.91450       23.61214       14.81003
H         53.60641       21.78728       16.18090
N         50.95757       24.61126       12.52108
C         50.56155       25.88267       11.93903
C         51.25644       26.07799       10.60637
O         51.80389       27.14188       10.35203
C         50.79071       27.04381       12.91753
H         50.19597       23.94848       12.70834
H         49.46696       25.82988       11.74195
H         50.24189       26.85199       13.86380
H         51.86845       27.16900       13.14975
H         50.40961       27.99175       12.48072
N         51.30663       25.04308        9.71977
C         51.95552       25.13428        8.42118
C         50.99233       24.72587        7.33378
O         49.94584       24.16751        7.63486
C         53.18933       24.23017        8.40145
H         50.88892       24.13961        9.98709
H         52.27995       26.17884        8.22640
H         53.89743       24.54753        9.19651
H         52.90322       23.17348        8.58992
H         53.70784       24.29287        7.42183
N         51.26963       25.01754        6.02796
C         50.40778       24.63897        4.91040
C         48.99914       25.23707        5.01467
O         48.17055       24.90559        4.17741
C         50.35466       23.09672        4.78708
C         51.75795       22.47047        4.64630
C         51.64965       20.97558        4.68311
O         52.14789       20.31316        5.74421
O         51.03237       20.37472        3.81961
H         52.13939       25.52580        5.80894
H         50.85809       25.01856        3.96657
H         49.74440       22.81228        3.90128
H         49.85903       22.66961        5.68427
H         52.38288       22.78155        5.51050
H         52.25768       22.80754        3.71254
N         48.64470       26.12456        5.99339
C         47.29749       26.63268        6.12881
H         46.59601       25.79244        6.32008
H         47.24418       27.33269        6.99124
H         46.99624       27.17431        5.20902
H         49.33225       26.46699        6.67625
Ca        51.19755       18.40366        6.49860
O         50.42569       20.97662        7.95043
H         51.27544       21.40974        8.21294
H         49.72033       21.58331        8.28463
O         48.55851       19.37703        4.90629
H         48.58291       19.70463        3.97269
H         47.90341       18.63626        4.88612
O         52.39759       19.13172        9.24000
H         53.14469       19.11865        9.88863
H         51.86105       18.32984        9.45896
O         52.02832       16.56834        4.13123
H         51.32626       16.69226        3.44486
H         52.64204       17.33236        3.99292
O         48.39399       18.79912        7.97058
H         47.46640       18.78313        8.31415
H         48.95996       18.71584        8.77785

Ca 1.0



