%chk=apoCaM-CA-Ng.loop3.water2.frame553.chk
%nprocshared=20
%mem=10GB
%nosave
#b3lyp/svp scf=(tight,noincore,xqc) Test 
#IOP(5/87=12) Density=Current Pop=(MK,readradii) iop(6/33=2) iop(6/42=6)

apoCaM-CA-Ng.loop3.water2.frame553 

   0  1 
C         50.25641       17.48489       73.76311
C         49.28834       16.34044       73.85629
O         48.11356       16.57293       74.10226
H         51.27977       17.13143       73.51250
H         49.92759       18.17643       72.95803
H         50.29476       18.03231       74.72607
N         49.71002       15.06930       73.61962
C         48.80493       13.93019       73.56136
C         48.21887       13.59587       74.92557
O         48.97069       13.32432       75.85182
C         49.54619       12.73035       72.94227
C         48.62060       11.63849       72.50897
O         49.06777       10.66732       71.92503
O         47.29528       11.75107       72.69289
H         50.70396       14.92399       73.38130
H         47.98551       14.19182       72.86332
H         50.31849       12.34463       73.64169
H         50.05364       13.07284       72.01792
N         46.86608       13.59987       75.11212
C         46.22614       13.33628       76.40115
C         46.48555       11.91155       76.89740
O         46.42589       11.68104       78.09535
C         44.69901       13.56855       76.26679
C         43.91753       13.69731       77.58797
C         44.27048       14.99883       78.33022
C         43.36963       15.22604       79.55006
N         43.69715       16.49384       80.20451
H         46.26851       13.84040       74.30516
H         46.65631       14.06915       77.11424
H         44.27689       12.73356       75.66510
H         44.51330       14.50795       75.69991
H         44.06876       12.80947       78.23744
H         42.83811       13.74422       77.32229
H         44.12649       15.85541       77.63463
H         45.32901       14.98180       78.66087
H         43.49552       14.39102       80.27383
H         42.30615       15.25247       79.22259
H         43.59294       17.28668       79.52942
H         43.04302       16.64823       81.00519
H         44.67817       16.46903       80.56622
N         46.70392       10.89753       76.01006
C         46.89100        9.49001       76.37272
C         48.24025        8.93511       75.92066
O         48.52559        7.79156       76.25513
C         45.72154        8.64299       75.80125
C         45.32424        9.03337       74.40006
O         46.19877        9.03465       73.38092
O         44.19683        9.45802       74.20031
H         46.70154       11.12839       75.01008
H         46.88397        9.36410       77.47675
H         44.82971        8.82613       76.43942
H         45.95023        7.55690       75.86044
N         49.12141        9.65595       75.17221
C         50.41272        9.15351       74.72414
C         50.28489        7.84302       73.98142
O         50.98365        6.90199       74.32967
H         48.87580       10.60929       74.88519
H         51.09014        9.01916       75.59660
H         50.87378        9.90789       74.05191
N         49.35697        7.68929       72.99467
C         49.08655        6.40853       72.36081
C         48.74777        6.59741       70.88968
O         47.79812        7.30326       70.57927
C         47.91393        5.73847       73.09925
C         47.63206        4.35847       72.56124
N         46.42988        4.06138       72.01755
O         48.49936        3.49917       72.61955
H         48.70875        8.46435       72.81140
H         49.96882        5.73745       72.46441
H         47.01144        6.38292       73.02219
H         48.16679        5.64110       74.17804
H         45.68677        4.77215       71.95775
H         46.24263        3.11660       71.65112
N         49.45924        5.94349       69.92996
C         49.12591        5.98603       68.51504
C         49.27448        7.36877       67.92886
O         50.35329        7.93632       68.02257
H         50.24595        5.34116       70.21499
H         48.09506        5.59604       68.36644
H         49.82014        5.31283       67.96763
N         48.23742        7.95446       67.25896
C         48.34374        9.26768       66.62293
C         48.59005       10.37805       67.63109
O         48.58684       10.14036       68.83144
C         47.10552        9.54500       65.73750
C         47.17974        8.75008       64.45562
C         46.34728        7.64364       64.22615
C         48.09776        9.13598       63.46175
C         46.44102        6.93025       63.02433
C         48.17832        8.43327       62.25801
C         47.35120        7.32450       62.03575
O         47.42063        6.63507       60.87884
H         47.35753        7.42428       67.16234
H         49.24333        9.26473       65.96693
H         47.03030       10.61351       65.44209
H         46.18870        9.30533       66.30988
H         45.63756        7.32543       64.97886
H         48.74146        9.99421       63.61451
H         45.80346        6.07122       62.85906
H         48.88261        8.75314       61.49970
H         48.03005        6.88289       60.16833
N         48.95472       11.60507       67.15742
C         49.53472       12.69389       67.93771
C         48.57850       13.32311       68.93697
O         48.11092       12.64108       69.83412
C         50.83958       12.23348       68.67280
C         51.60265       13.41592       69.33713
C         51.78157       11.43783       67.74889
C         52.16382       14.45949       68.36319
H         48.95501       11.74165       66.13411
H         49.83091       13.46964       67.20250
H         50.55502       11.54085       69.49525
H         52.45399       13.00292       69.92100
H         50.93775       13.93932       70.05426
H         51.29138       10.51267       67.38458
H         52.08370       12.03302       66.86458
H         52.68693       11.12212       68.31010
H         52.70249       15.24192       68.93676
H         52.88733       14.00189       67.65838
H         51.35802       14.95965       67.79076
N         48.36345       14.67208       68.91526
C         47.75717       15.37291       70.04326
C         46.30566       15.02101       70.30653
O         45.82797       15.38749       71.37385
C         47.90985       16.89823       69.91102
O         49.26668       17.25784       69.88529
H         48.77901       15.22623       68.15299
H         48.34014       15.08061       70.93608
H         47.45286       17.40178       70.79076
H         47.37428       17.27656       69.00993
H         49.55370       17.26253       68.93627
N         45.51995       14.35707       69.40935
C         44.13091       14.05117       69.72707
C         44.10219       12.97952       70.84577
O         44.40689       11.74462       70.25116
C         43.36603       13.58617       68.47694
H         45.89864       14.10713       68.48344
H         43.65297       14.99252       70.06034
H         42.30802       13.36796       68.73427
H         43.38610       14.38444       67.70613
H         43.82425       12.67405       68.03745
N         42.82066       12.86745       71.56053
C         42.37530       14.11357       72.23591
C         41.30718       14.78390       71.37998
O         40.38324       14.07674       71.00088
C         41.72476       13.78924       73.59376
H         42.99036       12.12590       72.28103
H         43.23981       14.76048       72.48319
H         40.85302       13.11213       73.47051
H         42.45720       13.30218       74.26773
H         41.38117       14.72316       74.08900
N         41.26906       16.11180       71.05043
C         42.19770       17.15337       71.47851
C         42.44584       18.14567       70.34963
O         43.59880       18.35588       69.99881
C         41.73286       17.83489       72.79496
C         40.41722       18.63711       72.79025
C         39.20474       17.79167       72.52535
O         38.91294       16.75675       73.33604
O         38.46340       18.05323       71.59159
H         40.43868       16.41410       70.52069
H         43.18085       16.71384       71.73203
H         42.53637       18.53991       73.10326
H         41.66590       17.05914       73.58739
H         40.48350       19.47809       72.06998
H         40.28949       19.08943       73.79729
N         41.41103       18.77902       69.72157
C         41.58041       19.74200       68.65332
H         42.64745       19.94862       68.43152
H         41.09255       19.35766       67.73289
H         41.09028       20.69583       68.94254
H         40.44171       18.56844       69.99028
Ca        45.37532       10.24384       71.65753
O         44.70181        7.38451       70.94217
H         44.23099        7.69682       71.75512
H         44.14715        6.63610       70.60851
O         45.14890        9.63642       68.56444
H         45.44336       10.51267       68.20721
H         44.16091        9.66581       68.50759

Ca 1.0



