%chk=apoCaM-CA-Ng.loop4.water6.frame872.chk
%nprocshared=20
%mem=10GB
%nosave
#b3lyp/svp scf=(tight,noincore,xqc) Test 
#IOP(5/87=12) Density=Current Pop=(MK,readradii) iop(6/33=2) iop(6/42=6)

apoCaM-CA-Ng.loop4.water6.frame872 

   -3  1 
C         25.42700      133.92266        9.00598
C         24.39770      134.97793        8.73319
O         24.59415      135.77653        7.82873
H         26.38323      134.40330        9.27956
H         25.12059      133.26155        9.84358
H         25.57052      133.29908        8.09871
N         23.25444      135.02408        9.47352
C         22.17167      135.97719        9.26961
C         21.62382      135.83690        7.85633
O         21.51305      136.82280        7.14810
C         22.64423      137.41271        9.62477
C         21.54974      138.45081        9.65585
O         20.38579      138.15852        9.42954
O         21.86318      139.72560        9.95579
H         23.12061      134.31993       10.21548
H         21.35917      135.70418        9.97984
H         23.42177      137.74328        8.90398
H         23.10071      137.39313       10.63776
N         21.30281      134.60425        7.37160
C         20.80761      134.37443        6.01109
C         19.43310      135.01046        5.79711
O         18.68846      135.11518        6.76179
C         20.76538      132.84916        5.65156
C         19.95148      132.00285        6.67406
C         22.20080      132.32096        5.47413
C         19.73178      130.55431        6.23602
H         21.47605      133.80452        7.99275
H         21.52443      134.85418        5.31767
H         20.27009      132.74254        4.66516
H         18.94788      132.45657        6.80912
H         20.45327      131.97311        7.66214
H         22.20501      131.27351        5.11324
H         22.72683      132.92009        4.69890
H         22.77438      132.38396        6.42173
H         19.18050      130.52406        5.27326
H         20.69003      130.00689        6.13356
H         19.12975      130.02789        7.00700
N         18.97476      135.41842        4.56676
C         19.75580      135.39226        3.32357
C         20.92777      136.37358        3.32859
O         21.77679      136.27142        2.45373
C         18.87134      135.59522        2.07168
C         18.24135      136.96020        1.95933
O         17.35638      137.39099        2.87768
O         18.50275      137.67220        1.00308
H         17.99804      135.74220        4.52466
H         20.17416      134.37250        3.21928
H         18.06892      134.82598        2.06437
H         19.50376      135.42030        1.17224
N         21.07555      137.30277        4.31455
C         22.28872      138.07667        4.50590
C         22.58018      139.11407        3.45554
O         21.82124      139.30544        2.51597
H         20.34575      137.40231        5.03261
H         23.14956      137.37737        4.58605
H         22.20925      138.62831        5.46779
N         23.70501      139.86312        3.62169
C         24.10201      140.97954        2.77219
C         24.41133      140.61511        1.32220
O         24.62574      141.54507        0.55694
C         25.27755      141.75906        3.43532
C         26.44411      140.91320        3.89714
O         26.75718      140.87191        5.20691
O         27.11350      140.27014        3.11185
H         24.27503      139.65820        4.45695
H         23.24731      141.69052        2.72494
H         24.87231      142.25085        4.34581
H         25.63900      142.56501        2.76048
N         24.43821      139.33499        0.83872
C         24.71415      139.05101       -0.57001
C         26.12672      139.42343       -1.00335
O         26.42711      139.32575       -2.18348
H         24.24299      138.53939        1.46199
H         23.97792      139.60504       -1.19142
H         24.57909      137.96519       -0.76668
N         27.05410      139.81708       -0.08954
C         28.44401      140.15499       -0.34745
C         29.18692      138.97015       -0.93283
O         29.97650      139.12989       -1.85371
C         28.59477      141.47284       -1.14157
C         27.87230      142.63325       -0.43126
C         28.13738      143.96026       -1.09407
N         27.12245      144.70735       -1.58945
O         29.28354      144.37854       -1.16266
H         26.78596      139.83251        0.89232
H         28.91377      140.33163        0.64780
H         28.19491      141.36127       -2.17250
H         29.67953      141.71090       -1.20736
H         28.22063      142.70435        0.62162
H         26.78290      142.42813       -0.42226
H         26.14622      144.38232       -1.53488
H         27.31311      145.62256       -2.02440
N         28.97037      137.73017       -0.40889
C         29.69635      136.53006       -0.80162
C         30.33630      135.85811        0.41141
O         30.95848      134.82244        0.22235
C         28.76517      135.53290       -1.55527
C         27.56439      135.06346       -0.71792
C         28.27970      136.13160       -2.88185
H         28.24265      137.62913        0.31499
H         30.52480      136.78548       -1.49930
H         29.36644      134.63289       -1.81522
H         27.90964      134.56995        0.21281
H         26.89458      135.91054       -0.46035
H         26.97243      134.31787       -1.29052
H         27.68038      135.38277       -3.44291
H         27.65317      137.02945       -2.70880
H         29.14878      136.41518       -3.51350
N         30.24693      136.37690        1.67895
C         30.81391      135.68742        2.83703
C         30.82064      136.55209        4.09504
O         30.29771      137.65689        4.09304
C         30.02551      134.37235        3.12283
C         28.66501      134.58935        3.76556
N         27.69017      135.30982        3.16296
O         28.44776      134.09873        4.86384
H         29.78805      137.28415        1.82262
H         31.87212      135.44663        2.59477
H         30.62551      133.74813        3.81962
H         29.90218      133.77298        2.19864
H         27.83137      135.74163        2.24221
H         26.78067      135.44406        3.63091
N         31.37216      136.05604        5.23802
C         31.24940      136.70041        6.54183
C         31.98748      135.88234        7.58571
O         31.68583      134.70614        7.74050
C         29.74980      136.79962        6.92574
C         29.52065      137.05355        8.39799
C         28.80155      136.10664        9.14449
C         30.03302      138.19024        9.04246
C         28.59349      136.28687       10.51043
C         29.83124      138.36649       10.41706
C         29.11119      137.41724       11.15411
O         28.92502      137.59746       12.47673
H         31.84574      135.14132        5.18607
H         31.68670      137.72247        6.51562
H         29.26804      135.83398        6.66169
H         29.24955      137.58919        6.32762
H         28.40762      135.22132        8.66468
H         30.59895      138.92728        8.48715
H         28.03571      135.54319       11.06581
H         30.23849      139.23894       10.91110
H         28.43371      136.96029       13.01552
N         32.92542      136.47368        8.38330
C         33.60675      135.76698        9.45712
C         33.25438      136.41505       10.79046
O         33.61452      137.57141       10.96585
C         35.13777      135.82594        9.26688
C         35.60900      135.25060        7.92698
C         37.10793      135.32113        7.83346
O         37.87258      134.65564        8.72087
O         37.64039      135.98252        6.95636
H         33.13934      137.47413        8.25050
H         33.31116      134.70992        9.44411
H         35.61372      135.25816       10.09774
H         35.48050      136.88385        9.32504
H         35.15978      135.83723        7.09527
H         35.28985      134.19170        7.82953
N         32.57051      135.79631       11.80206
C         31.95629      134.47089       11.76104
C         32.96426      133.36631       11.50884
O         33.94104      133.25875       12.23724
C         31.22013      134.18133       13.09535
C         30.46007      132.84384       13.03411
C         29.73565      132.51635       14.30497
O         30.00398      131.35697       14.93717
O         28.86210      133.25472       14.73108
H         32.43229      136.35060       12.66287
H         31.18686      134.47502       10.95682
H         30.48809      134.99642       13.28967
H         31.95281      134.16339       13.93348
H         31.16919      132.01419       12.82750
H         29.71803      132.88536       12.20876
N         32.73385      132.46845       10.50779
C         33.59390      131.34204       10.21880
H         34.48270      131.30764       10.88153
H         33.01642      130.40262       10.35474
H         33.93428      131.40299        9.16452
H         31.88444      132.56650        9.93055
Ca        28.71351      130.60446       16.63042
O         27.64089      130.13998       19.46693
H         26.69344      129.86056       19.52960
H         27.64749      131.06979       19.80551
O         29.29066      127.66388       18.41889
H         28.30408      127.58498       18.41331
H         29.61277      126.73858       18.27687
O         31.20089      130.34730       18.28287
H         31.53397      131.05610       18.88840
H         32.00359      129.81496       18.05419
O         26.27363      128.49170       16.64069
H         25.87258      128.54117       17.54448
H         26.44965      127.52741       16.50093
O         30.68070      128.35444       15.49780
H         30.61396      127.46330       15.92350
H         31.38872      128.25033       14.81375
O         28.67867      133.06653       18.21877
H         29.00303      133.79596       17.63390
H         29.46492      132.81697       18.76648

Ca 1.0



