%chk=apoCaM-CA-Ng.loop3.water6.frame116.chk
%nprocshared=20
%mem=10GB
%nosave
#b3lyp/svp scf=(tight,noincore,xqc) Test 
#IOP(5/87=12) Density=Current Pop=(MK,readradii) iop(6/33=2) iop(6/42=6)

apoCaM-CA-Ng.loop3.water6.frame116 

   0  1 
C         39.42676       90.28213       15.87484
C         39.99547       91.63990       16.17234
O         39.23875       92.53493       16.51597
H         38.67962       90.36548       15.05774
H         40.21819       89.57276       15.55020
H         38.93611       89.87158       16.78119
N         41.33433       91.86195       16.05163
C         41.99783       93.14518       16.26469
C         41.56164       94.17814       15.23500
O         41.48615       95.35737       15.55332
C         41.83579       93.65213       17.71688
C         42.27695       92.62758       18.72227
O         43.42867       92.22380       18.72804
O         41.39992       92.15441       19.62851
H         41.93736       91.07295       15.77095
H         43.08364       92.97927       16.08260
H         40.77382       93.91246       17.91046
H         42.43993       94.57403       17.86180
N         41.27089       93.79356       13.95993
C         40.92687       94.72137       12.88939
C         39.45443       94.61161       12.52308
O         39.07338       95.06644       11.45328
C         41.86836       94.46034       11.69222
C         43.32942       94.72788       12.09261
C         44.31098       94.46583       10.94694
C         45.74383       94.78738       11.39994
N         46.70910       94.53424       10.33228
H         41.28857       92.78969       13.72271
H         41.06946       95.77967       13.20017
H         41.60428       95.13631       10.84969
H         41.75269       93.40817       11.34786
H         43.61081       94.07422       12.94687
H         43.41894       95.78937       12.41287
H         44.04827       95.10351       10.07494
H         44.24716       93.39757       10.64355
H         46.00547       94.16239       12.28321
H         45.80387       95.85770       11.70018
H         47.66680       94.77512       10.67680
H         46.69046       93.52364       10.06411
H         46.48955       95.12791        9.49991
N         38.54660       94.15524       13.43581
C         37.10715       94.14106       13.22271
C         36.46122       95.10524       14.20819
O         36.81383       95.09108       15.38003
C         36.57694       92.70916       13.38863
C         35.14824       92.61174       12.92673
O         34.85916       91.89678       11.98063
O         34.18405       93.32663       13.53003
H         38.87606       93.84021       14.35770
H         36.86308       94.45597       12.18344
H         36.67238       92.37142       14.44403
H         37.18815       92.03083       12.75333
N         35.49724       95.97271       13.79089
C         34.90999       97.00962       14.62518
C         34.36545       96.51541       15.94848
O         34.79620       97.03662       16.96823
H         35.17053       95.91557       12.81433
H         34.09343       97.50580       14.05767
H         35.68801       97.77849       14.82951
N         33.42661       95.52665       16.02382
C         32.86080       95.07535       17.29878
C         33.29380       93.66201       17.67140
O         32.92084       93.20564       18.74402
C         31.31933       95.18954       17.28312
C         30.64406       94.10855       16.46482
N         29.81092       93.22110       17.05985
O         30.85351       94.02416       15.26597
H         33.11623       95.07993       15.15100
H         33.22014       95.73930       18.11498
H         31.01716       96.19488       16.91651
H         30.96340       95.10358       18.33251
H         29.61988       93.26787       18.07152
H         29.35746       92.47671       16.51065
N         34.08083       92.91028       16.84899
C         34.51925       91.56181       17.16335
C         33.38590       90.56353       17.25491
O         32.22392       90.92072       17.11420
H         34.42084       93.30753       15.96668
H         35.08130       91.57233       18.12259
H         35.20597       91.21434       16.36224
N         33.68328       89.26057       17.51852
C         32.66608       88.22948       17.72598
C         31.87021       87.95768       16.45731
O         32.22080       88.46386       15.40471
C         33.32105       86.92587       18.24433
C         34.21219       87.20372       19.43868
C         35.59551       86.96312       19.35261
C         33.68554       87.74312       20.62517
C         36.43697       87.27150       20.42447
C         34.53070       88.05146       21.69684
C         35.91089       87.82140       21.59685
O         36.73991       88.12940       22.61467
H         34.67881       89.01826       17.63527
H         31.96904       88.60578       18.50748
H         33.92948       86.49114       17.42024
H         32.54499       86.18034       18.52148
H         36.02851       86.55395       18.44823
H         32.62512       87.93963       20.71663
H         37.50163       87.09296       20.33812
H         34.11349       88.47789       22.60030
H         36.42072       88.52752       23.43695
N         30.74483       87.19483       16.50258
C         29.87186       86.97065       15.35098
C         28.59901       87.77213       15.54768
O         28.20823       88.47341       14.62468
C         29.59720       85.45757       15.13273
C         30.90503       84.64073       14.94216
C         28.64113       85.22891       13.94088
C         31.74926       85.02603       13.71907
H         30.45930       86.80975       17.41503
H         30.33572       87.35380       14.41507
H         29.09381       85.05988       16.04166
H         30.63992       83.56472       14.84968
H         31.53841       84.74829       15.84831
H         28.44687       84.14413       13.80369
H         27.66266       85.72121       14.11321
H         29.05870       85.64138       12.99885
H         32.64710       84.37453       13.67474
H         31.18528       84.88238       12.77495
H         32.09852       86.07612       13.78306
N         27.93758       87.78656       16.74200
C         26.80305       88.67280       16.96998
C         25.52109       88.11182       16.39497
O         24.54737       88.85076       16.34632
C         26.64190       88.98080       18.46121
O         27.82542       89.55933       18.94062
H         28.30858       87.24314       17.53370
H         27.01741       89.64662       16.47104
H         26.42561       88.03613       19.00861
H         25.80356       89.69990       18.60006
H         27.73232       89.60903       19.92636
N         25.44344       86.83110       15.91346
C         24.26543       86.26369       15.27022
C         23.94112       86.94709       13.94172
O         22.95417       86.56582       13.33147
C         23.05922       86.27073       16.22996
H         26.25863       86.20756       15.99750
H         24.47693       85.19555       15.03755
H         22.72189       87.29650       16.47864
H         22.19799       85.73939       15.77263
H         23.32308       85.74697       17.17398
N         24.72208       87.95249       13.42683
C         24.40469       88.67473       12.20129
C         25.54279       88.59361       11.19200
O         26.58762       88.03500       11.49266
C         24.10219       90.12648       12.56686
H         25.56825       88.25802       13.91857
H         23.49960       88.24122       11.72371
H         23.81606       90.71234       11.67014
H         23.25551       90.15318       13.28708
H         24.98821       90.59595       13.04599
N         25.35090       89.07525        9.92461
C         26.28145       88.88273        8.81236
C         26.67465       87.41851        8.71006
O         27.85613       87.09901        8.65622
C         27.50955       89.82764        8.85871
C         27.13999       91.29405        8.57814
C         28.37050       92.14569        8.40731
O         29.18637       91.88047        7.53735
O         28.55870       93.23077        9.17933
H         24.43299       89.48472        9.69759
H         25.73662       89.11724        7.87034
H         28.19089       89.51965        8.03419
H         28.05886       89.72857        9.81980
H         26.50175       91.69507        9.39368
H         26.57271       91.35070        7.62331
N         25.71013       86.46070        8.69934
C         26.02966       85.05478        8.60809
H         26.70340       84.76265        9.44222
H         25.10003       84.45175        8.67288
H         26.52771       84.84764        7.63756
H         24.71894       86.73586        8.77894
Ca        31.60151       92.49579       12.76863
O         30.05916       90.51882       14.16249
H         29.18760       90.89170       13.87659
H         30.01528       90.51033       15.15121
O         31.32519       90.20159       10.84402
H         30.37386       89.92853       10.85951
H         31.40938       90.76300       10.03279
O         33.69230       90.13736       13.87001
H         32.86449       90.59430       14.16332
H         33.39140       89.49569       13.17867
O         28.83934       93.15385       12.04870
H         29.04167       92.29253       11.60312
H         27.97392       92.99963       12.50253
O         31.72242       95.52650       12.95972
H         31.98420       95.79885       12.04555
H         30.83108       95.93385       13.10033
O         32.15848       93.61331       10.09964
H         32.44475       94.38685        9.55297
H         31.17109       93.68139       10.12972

Ca 1.0



