%chk=apoCaM-CA-Ng.loop3.water3.frame928.chk
%nprocshared=20
%mem=10GB
%nosave
#b3lyp/svp scf=(tight,noincore,xqc) Test 
#IOP(5/87=12) Density=Current Pop=(MK,readradii) iop(6/33=2) iop(6/42=6)

apoCaM-CA-Ng.loop3.water3.frame928 

   0  1 
C        -23.99082       -0.72052       -2.02997
C        -25.43333       -1.05255       -1.79652
O        -26.01229       -1.74287       -2.62325
H        -23.41495       -1.66839       -2.10526
H        -23.87971       -0.15282       -2.97639
H        -23.57057       -0.12317       -1.19467
N        -26.08174       -0.61211       -0.67986
C        -27.42199       -1.06244       -0.33407
C        -28.47036       -0.07929       -0.82964
O        -28.46314        1.06783       -0.40467
C        -27.50507       -1.31054        1.18456
C        -28.72112       -2.09252        1.59434
O        -28.87443       -2.44950        2.88278
O        -29.55225       -2.44297        0.77230
H        -25.56546       -0.03304        0.00072
H        -27.57983       -2.05224       -0.80079
H        -27.46194       -0.34620        1.73667
H        -26.62571       -1.91434        1.48788
N        -29.39461       -0.46624       -1.75943
C        -30.39107        0.44500       -2.32707
C        -31.40094        0.96109       -1.30593
O        -32.08642        1.92909       -1.60436
C        -31.12786       -0.21393       -3.52132
C        -31.99858       -1.42742       -3.12917
C        -32.63590       -2.07218       -4.36825
C        -33.52014       -3.26809       -3.98643
N        -34.12203       -3.87654       -5.17265
H        -29.33997       -1.42998       -2.11735
H        -29.82989        1.31899       -2.72663
H        -30.36361       -0.53718       -4.26186
H        -31.77730        0.54355       -4.01320
H        -32.80172       -1.09819       -2.43452
H        -31.38157       -2.19232       -2.61578
H        -31.83111       -2.42169       -5.05213
H        -33.25590       -1.31812       -4.89955
H        -34.32716       -2.93098       -3.29810
H        -32.90599       -4.03105       -3.46327
H        -34.71515       -4.68638       -4.87873
H        -34.72276       -3.18053       -5.67035
H        -33.37501       -4.22057       -5.81877
N        -31.59671        0.32392       -0.11798
C        -32.56968        0.73670        0.88741
C        -31.88122        0.95324        2.23454
O        -32.02036        2.02992        2.79789
C        -33.76825       -0.24808        0.90448
C        -33.45417       -1.72257        0.94489
O        -33.78849       -2.43397        0.01152
O        -32.87188       -2.28664        2.01097
H        -31.06823       -0.53727        0.06464
H        -33.03450        1.71273        0.61753
H        -34.32073       -0.07843       -0.04761
H        -34.46062        0.01476        1.73230
N        -31.08922       -0.00645        2.78656
C        -30.37259        0.11713        4.05075
C        -30.74339       -1.00986        5.00200
O        -29.99753       -1.28296        5.93082
H        -30.96000       -0.88337        2.27557
H        -30.53450        1.09748        4.55002
H        -29.28964        0.03833        3.81971
N        -31.92569       -1.66351        4.85340
C        -32.42536       -2.72834        5.71608
C        -31.74798       -4.06713        5.45311
O        -31.75866       -4.53117        4.32486
C        -33.93602       -2.90685        5.44711
C        -34.68090       -1.62474        5.73312
N        -35.29966       -0.94752        4.73744
O        -34.70429       -1.18216        6.87184
H        -32.56347       -1.30980        4.13155
H        -32.31615       -2.43108        6.78291
H        -34.35486       -3.71699        6.08209
H        -34.08092       -3.19924        4.38292
H        -35.27357       -1.29202        3.76669
H        -35.78893       -0.06197        4.93349
N        -31.25014       -4.80103        6.48510
C        -30.83062       -6.19090        6.36180
C        -29.61088       -6.41613        5.49047
O        -28.57540       -5.81571        5.73551
H        -31.27554       -4.40101        7.43495
H        -31.69060       -6.79619        5.99454
H        -30.58588       -6.56992        7.37696
N        -29.64718       -7.37381        4.51732
C        -28.48852       -7.79869        3.72634
C        -28.09901       -6.76937        2.66768
O        -28.66508       -5.68735        2.64378
C        -28.79314       -9.17797        3.07710
C        -29.01530      -10.26303        4.10694
C        -30.24214      -10.94234        4.17061
C        -27.98563      -10.62539        4.99633
C        -30.43727      -11.96303        5.10646
C        -28.18368      -11.64506        5.93179
C        -29.40746      -12.31832        5.98989
O        -29.58034      -13.30496        6.89246
H        -30.52758       -7.90011        4.40122
H        -27.61301       -7.94437        4.39515
H        -27.95027       -9.53450        2.45477
H        -29.67412       -9.07805        2.41077
H        -31.04660      -10.68610        3.49317
H        -27.02512      -10.12663        4.96340
H        -31.38782      -12.47951        5.14086
H        -27.38237      -11.91596        6.60853
H        -30.40835      -13.80149        6.95984
N        -27.11724       -7.06617        1.75861
C        -26.60453       -6.21300        0.68422
C        -27.70295       -5.80069       -0.29753
O        -28.65224       -5.16426        0.12992
C        -25.85256       -4.96106        1.23214
C        -24.95664       -4.30829        0.13546
C        -25.02077       -5.25938        2.49410
C        -23.74609       -5.15514       -0.30714
H        -26.65936       -7.98547        1.82591
H        -25.86058       -6.83187        0.14688
H        -26.61422       -4.21909        1.54842
H        -24.55663       -3.34841        0.52725
H        -25.57117       -4.07185       -0.75896
H        -24.27517       -6.06005        2.31774
H        -24.50106       -4.33674        2.83185
H        -25.67949       -5.58085        3.32719
H        -24.04352       -6.12071       -0.76111
H        -23.16257       -4.60160       -1.07112
H        -23.06299       -5.35665        0.54419
N        -27.61957       -6.06185       -1.63971
C        -28.63985       -5.57430       -2.56946
C        -28.92444       -6.55243       -3.69069
O        -28.05166       -6.78280       -4.51504
C        -28.20991       -4.22753       -3.16170
O        -29.21865       -3.72560       -3.99673
H        -26.76931       -6.50753       -2.01413
H        -29.58278       -5.38838       -2.01984
H        -27.26265       -4.34667       -3.73343
H        -28.04874       -3.52430       -2.32609
H        -28.88037       -2.86304       -4.35212
N        -30.16063       -7.12073       -3.80714
C        -30.57930       -7.91257       -4.96337
C        -31.88895       -7.33212       -5.52635
O        -32.50665       -6.54314       -4.82730
C        -30.73087       -9.36660       -4.51847
H        -30.84649       -6.96552       -3.05259
H        -29.79100       -7.86364       -5.74146
H        -30.96706      -10.03425       -5.36051
H        -29.76807       -9.71927       -4.08987
H        -31.52028       -9.45799       -3.74290
N        -32.39174       -7.59376       -6.77535
C        -31.74635       -8.40102       -7.80310
C        -32.08027       -9.87154       -7.63074
O        -33.01751      -10.17568       -6.90363
C        -32.22550       -7.93447       -9.18948
H        -33.24957       -7.08149       -7.04099
H        -30.65388       -8.22695       -7.74256
H        -31.74966       -8.49877      -10.01522
H        -33.32589       -8.06322       -9.28137
H        -31.98396       -6.85875       -9.32564
N        -31.35371      -10.87442       -8.20381
C        -30.15787      -10.69606       -9.01989
C        -28.95876      -11.11170       -8.19451
O        -28.07149      -10.29240       -7.99596
C        -30.29555      -11.49662      -10.33103
C        -29.12525      -11.24443      -11.29488
C        -29.29017      -12.04222      -12.55710
O        -29.31732      -13.38798      -12.50673
O        -29.38759      -11.47727      -13.63493
H        -31.63277      -11.84328       -7.98279
H        -30.01005       -9.63660       -9.29933
H        -31.23344      -11.18223      -10.84097
H        -30.37372      -12.58173      -10.10092
H        -28.16279      -11.53194      -10.82199
H        -29.08722      -10.15991      -11.54275
N        -28.89139      -12.35225       -7.63446
C        -27.81408      -12.77579       -6.76382
H        -27.04013      -11.99068       -6.63143
H        -28.23226      -13.01856       -5.76370
H        -27.33291      -13.68215       -7.18368
H        -29.65353      -13.02587       -7.79949
Ca       -31.15752       -4.57127        1.63857
O        -31.81787       -4.89129       -1.09219
H        -32.55231       -5.46488       -1.42307
H        -32.15132       -3.96610       -1.18818
O        -30.97994       -7.25344        0.64042
H        -31.33523       -7.57672        1.50649
H        -30.40984       -7.98952        0.30574
O        -33.95476       -5.34101        2.42373
H        -33.94726       -5.96449        1.65488
H        -33.75900       -5.91277        3.20805

Ca 1.0



