%chk=apoCaM-CA-Ng.loop3.water2.frame983.chk
%nprocshared=20
%mem=10GB
%nosave
#b3lyp/svp scf=(tight,noincore,xqc) Test 
#IOP(5/87=12) Density=Current Pop=(MK,readradii) iop(6/33=2) iop(6/42=6)

apoCaM-CA-Ng.loop3.water2.frame983 

   0  1 
C         55.61995      127.88441       82.20113
C         55.70581      129.22716       82.86447
O         55.23066      130.20150       82.29922
H         56.16885      127.90256       81.23841
H         56.05076      127.08656       82.84358
H         54.55321      127.63745       82.01568
N         56.27839      129.34682       84.09158
C         56.29756      130.59497       84.84021
C         57.10939      131.66545       84.12025
O         58.30102      131.46885       83.92362
C         56.85685      130.31315       86.25514
C         56.60350      131.40439       87.24045
O         56.98967      131.23049       88.51876
O         56.03673      132.43282       86.91089
H         56.65728      128.49518       84.53605
H         55.24450      130.93184       84.94498
H         57.94123      130.07890       86.20248
H         56.35494      129.42496       86.67825
N         56.52067      132.82520       83.68800
C         57.26329      133.87554       82.98029
C         58.33687      134.54754       83.83298
O         59.11496      135.31818       83.28593
C         56.31979      134.91044       82.30248
C         55.27023      135.67646       83.14129
C         55.78865      136.63927       84.22270
C         54.58355      137.38802       84.84179
N         54.94949      138.23776       85.97832
H         55.50737      132.93527       83.83173
H         57.79912      133.37965       82.13941
H         55.73155      134.34246       81.54776
H         56.93545      135.64657       81.74141
H         54.56942      134.95497       83.61100
H         54.68121      136.28079       82.41612
H         56.50601      137.37260       83.79539
H         56.30150      136.04345       85.00217
H         53.84498      136.63569       85.18249
H         54.08014      138.01396       84.07086
H         55.64325      137.77228       86.59409
H         55.34855      139.14515       85.65132
H         54.09264      138.42679       86.54961
N         58.45350      134.29177       85.16448
C         59.48099      134.83920       86.03784
C         60.32771      133.70463       86.60062
O         61.53439      133.71301       86.40499
C         58.82593      135.75779       87.10531
C         57.54025      135.26891       87.77120
O         56.50626      135.86101       87.54271
O         57.48027      134.23200       88.62511
H         57.76959      133.66950       85.60479
H         60.18769      135.49035       85.46987
H         58.54084      136.67699       86.54287
H         59.57966      136.07086       87.85917
N         59.74874      132.67152       87.26535
C         60.45460      131.51394       87.78901
C         60.26332      131.35009       89.28255
O         60.75534      130.36105       89.81279
H         58.73929      132.68208       87.37785
H         61.54411      131.56895       87.57903
H         60.05452      130.61269       87.28043
N         59.61669      132.28296       90.04037
C         59.53709      132.23907       91.49583
C         58.10176      132.34342       91.99003
O         57.20720      132.57702       91.19311
C         60.34725      133.43893       92.02227
C         61.72693      133.44575       91.40538
N         62.07048      134.39893       90.50489
O         62.51814      132.55595       91.67901
H         59.25663      133.13036       89.59091
H         59.97345      131.29006       91.87672
H         60.41648      133.44044       93.13021
H         59.81513      134.36801       91.71465
H         61.40260      135.13536       90.23043
H         62.99475      134.38292       90.04974
N         57.80910      132.19590       93.31079
C         56.48471      132.40172       93.88395
C         55.41495      131.52829       93.26680
O         55.55102      130.31332       93.27917
H         58.57452      131.95450       93.95970
H         56.20716      133.47217       93.77288
H         56.52671      132.17943       94.97148
N         54.30913      132.10252       92.70845
C         53.21287      131.34688       92.11800
C         53.39215      131.30455       90.57965
O         53.38000      132.62087       90.09385
C         51.84944      132.00164       92.48990
C         51.59770      132.05727       93.97344
C         51.58711      133.29529       94.63659
C         51.35315      130.88332       94.70480
C         51.35792      133.35777       96.01245
C         51.11092      130.94935       96.08148
C         51.12035      132.18396       96.74088
O         50.90162      132.23127       98.07035
H         54.24110      133.13208       92.68966
H         53.22350      130.29783       92.49029
H         50.99608      131.46392       92.02035
H         51.84079      133.03296       92.07482
H         51.76745      134.21320       94.09087
H         51.33826      129.92071       94.20857
H         51.36585      134.31939       96.50971
H         50.91775      130.04022       96.63706
H         50.91681      133.06410       98.56370
N         52.26849      130.54688       89.99609
C         52.37510      130.12544       88.58840
C         52.34304      131.31103       87.63639
O         53.30250      132.06158       87.55778
C         53.57384      129.16060       88.29694
C         53.69210      128.79281       86.78772
C         53.49892      127.87301       89.13832
C         52.47205      128.13307       86.14453
H         52.06300      129.69984       90.57494
H         51.45514      129.53365       88.39267
H         54.52029      129.67719       88.56944
H         54.55561      128.10849       86.64525
H         53.89802      129.71568       86.21686
H         52.56108      127.31618       88.93192
H         54.36191      127.21289       88.90465
H         53.54943      128.09513       90.22255
H         51.58885      128.79703       86.18582
H         52.69426      127.94418       85.07182
H         52.23329      127.16623       86.62793
N         51.28175      131.45431       86.79590
C         51.24385      132.38322       85.67783
C         49.93587      133.16592       85.61330
O         49.68816      133.77840       84.58286
C         51.40858      131.53631       84.40314
O         50.35327      130.61946       84.28816
H         50.50426      130.78032       86.86639
H         52.09492      133.09637       85.69591
H         52.37708      130.98805       84.46951
H         51.43311      132.19686       83.50926
H         50.55216      130.06686       83.48935
N         49.04262      133.19411       86.64829
C         47.70272      133.76759       86.51110
C         47.63859      135.19321       87.04216
O         48.59513      135.62027       87.67345
C         46.70944      132.83781       87.22585
H         49.29720      132.76404       87.55039
H         47.44876      133.81520       85.43074
H         46.77848      131.81669       86.79356
H         46.95818      132.77775       88.30754
H         45.66158      133.17477       87.14494
N         46.59294      136.04608       86.78965
C         45.40369      135.74690       85.98802
C         44.13307      136.02666       86.79007
O         44.18075      136.89073       87.65521
C         45.41037      136.60571       84.72474
H         46.67285      137.00762       87.15838
H         45.42566      134.70385       85.64673
H         44.52575      136.37133       84.09403
H         45.39461      137.68572       84.98168
H         46.32580      136.38901       84.13322
N         42.96123      135.33524       86.63841
C         42.72557      134.25109       85.69545
C         42.80861      132.90261       86.39633
O         42.79005      131.89432       85.70284
C         41.39769      134.40365       84.89502
C         40.06654      134.40004       85.68685
C         39.55694      135.77041       86.08312
O         38.50140      136.17222       85.61782
O         40.21660      136.55657       86.94949
H         42.22064      135.53416       87.31943
H         43.52221      134.23525       84.92969
H         41.36634      133.50846       84.23331
H         41.42033      135.28162       84.21351
H         40.11582      133.70652       86.55298
H         39.29333      133.99220       84.99689
N         42.93956      132.79692       87.75234
C         43.11432      131.53620       88.44084
H         44.05920      131.57582       89.02337
H         42.26705      131.37518       89.13816
H         43.17562      130.67537       87.74330
H         42.92992      133.63601       88.34776
Ca        55.44027      133.46225       89.41761
O         52.60359      135.26095       89.67872
H         52.70718      135.00071       90.62859
H         51.99371      134.58056       89.29457
O         53.95279      134.94209       87.05913
H         54.05663      134.32088       86.29588
H         53.02608      135.28123       86.98478

Ca 1.0



