%chk=apoCaM-CA-Ng.loop1.water2.frame813.chk
%nprocshared=20
%mem=10GB
%nosave
#b3lyp/svp scf=(tight,noincore,xqc) Test 
#IOP(5/87=12) Density=Current Pop=(MK,readradii) iop(6/33=2) iop(6/42=6)

apoCaM-CA-Ng.loop1.water2.frame813 

   0  1 
C         96.62640      -12.55699       46.61058
C         97.80903      -11.64378       46.71901
O         98.87067      -11.97401       46.20992
H         95.79728      -12.03552       46.08977
H         96.88902      -13.47808       46.04848
H         96.29265      -12.84635       47.63015
N         97.69518      -10.47712       47.40990
C         98.80786       -9.56191       47.63483
C         99.21058       -9.60970       49.09968
O         98.68219      -10.43109       49.83785
C         98.48744       -8.15548       47.07460
C         97.35271       -7.41277       47.72477
O         96.67024       -7.92889       48.76351
O         97.05304       -6.30717       47.30354
H         96.78586      -10.25725       47.84360
H         99.70774       -9.90010       47.07530
H         98.25673       -8.26655       45.99224
H         99.39273       -7.51631       47.14736
N        100.19459       -8.80248       49.57700
C        100.79368       -8.96395       50.89389
C        100.35628       -7.82309       51.78646
O        101.16637       -6.99361       52.17549
C        102.31567       -9.10957       50.67329
C        103.12396       -9.46963       51.92713
C        104.58560       -9.74524       51.52684
C        105.50881      -10.07443       52.70941
N        105.11351      -11.29881       53.40745
H        100.58964       -8.07451       48.96308
H        100.44576       -9.90014       51.38427
H        102.72415       -8.18174       50.21381
H        102.45180       -9.94093       49.94484
H        102.68520      -10.38167       52.38294
H        103.08272       -8.63991       52.66378
H        104.99441       -8.84250       51.02206
H        104.61854      -10.58858       50.80103
H        105.52928       -9.22141       53.42188
H        106.53814      -10.21051       52.30754
H        104.18709      -11.17624       53.87320
H        105.07477      -12.10172       52.73827
H        105.82351      -11.50976       54.14538
N         99.04669       -7.75599       52.17462
C         98.51135       -6.69709       53.02053
C         97.08828       -7.02438       53.62629
O         96.23175       -7.68356       52.73952
C         98.62046       -5.28736       52.35203
C         98.37920       -5.12585       50.85559
O         97.17426       -5.28157       50.27730
O         99.31159       -4.77639       50.14869
H         98.41239       -8.51041       51.87296
H         99.17322       -6.59991       53.89717
H         99.67778       -4.97187       52.49584
H         98.01577       -4.55467       52.92857
N         97.07680       -7.76686       54.90525
C         97.87816       -7.13372       55.96605
C         99.17551       -7.88338       56.14773
O         99.32779       -8.97150       55.60820
H         96.08011       -7.76491       55.22767
H         97.34495       -7.15184       56.94133
H         98.05962       -6.05845       55.73857
N        100.18642       -7.31898       56.85977
C        101.48544       -7.95132       57.04607
C        101.88425       -7.83765       58.50374
O        101.91503       -6.72840       59.02097
C        102.50975       -7.26576       56.12716
C        103.85327       -7.93712       56.19948
O        104.83993       -7.30437       56.53793
O        103.97503       -9.24046       55.88097
H        100.05140       -6.36159       57.22162
H        101.44800       -9.02183       56.74201
H        102.59731       -6.18839       56.38769
H        102.15194       -7.33951       55.07619
N        102.21651       -8.93881       59.23496
C        102.56744       -8.84598       60.64443
C        101.37302       -8.53463       61.53360
O        101.57035       -8.35473       62.72646
H        102.24659       -9.86344       58.77865
H        103.36577       -8.08292       60.76877
H        102.97565       -9.82171       60.98751
N        100.10008       -8.55252       61.04282
C         98.89257       -8.42418       61.85460
C         97.93201       -7.40807       61.23028
O         98.26958       -6.81875       60.21137
C         98.25403       -9.84006       62.00474
C         98.04347      -10.59039       60.67678
O         99.03123      -10.63261       62.86901
H         99.95433       -8.77478       60.04876
H         99.12558       -8.06295       62.88087
H         97.26446       -9.73442       62.49148
H         99.90690      -10.79971       62.43281
H         97.45607       -9.99303       59.96291
H         99.01418      -10.83426       60.19583
H         97.51519      -11.54754       60.86700
N         96.69509       -7.17921       61.77669
C         95.69961       -6.29081       61.16709
C         95.10741       -5.25780       62.12321
O         94.35742       -4.42561       61.63028
C         94.54272       -7.11691       60.52101
C         93.81371       -8.00651       61.56578
C         95.07831       -7.93571       59.33872
C         92.60854       -8.75809       61.00084
H         96.42321       -7.71201       62.61372
H         96.17624       -5.69895       60.35409
H         93.80730       -6.39963       60.09245
H         93.44232       -7.36246       62.39159
H         94.51211       -8.75535       61.99559
H         95.78198       -8.70157       59.69526
H         94.26030       -8.43634       58.78474
H         95.59797       -7.27071       58.61798
H         92.91683       -9.48935       60.22642
H         92.11675       -9.32718       61.81772
H         91.87539       -8.04454       60.57020
N         95.34570       -5.23880       63.47091
C         94.71737       -4.25145       64.35492
C         93.81351       -4.90732       65.38378
O         93.81719       -6.12288       65.52095
C         95.78765       -3.36744       65.04646
C         96.71545       -4.15330       65.98281
O         96.56857       -2.72075       64.07587
H         95.96541       -5.94393       63.89034
H         94.06271       -3.57380       63.76584
H         95.28152       -2.60342       65.68311
H         96.05941       -1.92012       63.78313
H         97.43418       -3.45709       66.46432
H         96.13350       -4.65334       66.78610
H         97.29749       -4.91697       65.42782
N         93.00314       -4.12129       66.15018
C         92.17716       -4.61478       67.24219
C         90.69686       -4.42497       66.93197
O         89.96685       -5.40637       66.95662
C         92.61386       -3.90085       68.55506
C         91.83660       -4.38506       69.78339
O         92.46898       -2.50789       68.43474
H         92.99147       -3.10689       65.96500
H         92.34781       -5.70445       67.39593
H         93.69225       -4.14525       68.70799
H         93.10827       -2.08796       69.06781
H         90.75510       -4.15364       69.68413
H         91.96923       -5.47851       69.91858
H         92.21913       -3.87048       70.69160
N         90.17710       -3.18747       66.69237
C         88.74613       -2.91412       66.58711
C         88.42695       -2.09711       65.34577
O         89.04145       -1.05836       65.14451
C         88.28122       -2.19565       67.87799
C         88.96113       -0.84051       68.14773
C         88.58336       -0.28383       69.52115
C         89.30138        1.05057       69.76571
N         89.01224        1.56631       71.10154
H         90.81901       -2.38474       66.67274
H         88.16109       -3.86027       66.55870
H         88.50605       -2.87854       68.72764
H         87.17880       -2.04931       67.84499
H         88.66804       -0.10781       67.36759
H         90.06252       -0.96051       68.13912
H         88.89457       -1.01245       70.30213
H         87.48303       -0.13705       69.58412
H         88.97627        1.79215       69.00200
H         90.40083        0.90532       69.66591
H         89.34832        0.88934       71.82482
H         89.51424        2.47433       71.23092
H         87.98474        1.72422       71.21260
N         87.42411       -2.47026       64.49678
C         87.01184       -1.63276       63.37399
C         88.13928       -1.47587       62.35311
O         88.56064       -0.34424       62.16006
C         85.67219       -2.11698       62.76993
C         85.17876       -1.18843       61.64722
C         83.84941       -1.63641       61.11244
O         83.73296       -2.73461       60.59206
O         82.78122       -0.81967       61.18934
H         86.89129       -3.32998       64.70134
H         86.78207       -0.62186       63.78560
H         84.91045       -2.11926       63.58156
H         85.73918       -3.15322       62.40012
H         85.90868       -1.17680       60.80990
H         85.08055       -0.15407       62.04405
N         88.72158       -2.50378       61.66774
C         88.35719       -3.89888       61.77758
H         87.33925       -4.07054       61.38606
H         89.03820       -4.50927       61.14735
H         88.44953       -4.24756       62.82578
H         89.49753       -2.27611       61.02629
Ca        95.48870       -6.04957       51.45170
O         94.45159       -5.10065       48.55259
H         94.44376       -5.84085       47.89507
H         94.38782       -4.27967       48.00292
O         95.18435      -10.04540       50.92762
H         95.28735      -10.98305       51.22818
H         96.10015       -9.76496       50.67823

Ca 1.0



