%chk=apoCaM-CA-Ng.loop2.water2.frame979.chk
%nprocshared=20
%mem=10GB
%nosave
#b3lyp/svp scf=(tight,noincore,xqc) Test 
#IOP(5/87=12) Density=Current Pop=(MK,readradii) iop(6/33=2) iop(6/42=6)

apoCaM-CA-Ng.loop2.water2.frame979 

   -2  1 
C         41.09734      116.46098       57.24171
C         39.92411      115.55107       57.45294
O         38.83704      115.85819       56.98486
H         41.89918      115.91488       56.70183
H         40.80558      117.35058       56.64351
H         41.48628      116.80255       58.22388
N         40.08289      114.39621       58.15667
C         39.00737      113.44897       58.41259
C         39.36360      112.13118       57.73693
O         39.56563      111.12305       58.40024
C         38.79290      113.34721       59.94109
C         37.60439      112.51189       60.34959
O         37.30835      112.38525       61.65700
O         36.89293      111.96654       59.51998
H         41.01882      114.17318       58.53115
H         38.04909      113.80831       57.97530
H         38.61536      114.37220       60.33580
H         39.70916      112.94570       60.42496
N         39.44616      112.09053       56.37656
C         39.79674      110.89551       55.61149
C         41.25875      110.52497       55.85482
O         42.09933      111.38446       55.62832
C         39.58956      111.16886       54.11625
H         39.22551      112.95785       55.86144
H         39.09212      110.08342       55.87582
H         38.52826      111.44256       53.92993
H         40.23426      112.00592       53.77206
H         39.82558      110.26367       53.51943
N         41.68670      109.30959       56.31852
C         40.82565      108.16413       56.60541
C         41.45245      107.21039       57.61963
O         42.60973      107.36168       57.98583
C         40.44255      107.42187       55.30228
C         41.64054      106.84891       54.58707
O         41.73410      105.52069       54.38729
O         42.52113      107.58249       54.16676
H         42.70121      109.20929       56.47749
H         39.91736      108.53561       57.12241
H         39.91765      108.10923       54.60889
H         39.74132      106.59402       55.54213
N         40.67508      106.24833       58.18912
C         41.11075      105.40475       59.28840
C         40.62229      103.99166       59.09904
O         39.68688      103.62184       59.79547
H         39.67977      106.19904       57.91929
H         40.59940      105.80228       60.19352
H         42.20058      105.45480       59.48900
N         41.13321      103.11757       58.18894
C         42.30984      103.32239       57.34826
C         43.57621      103.33886       58.19539
O         43.75494      102.44309       59.00960
C         42.38688      102.15883       56.33908
C         43.56453      102.25997       55.41054
N         44.47939      101.26695       55.35895
O         43.68557      103.23526       54.68585
H         40.64609      102.20913       58.11322
H         42.20392      104.26063       56.76108
H         41.46342      102.16026       55.72003
H         42.42647      101.19360       56.89060
H         44.39950      100.43475       55.96122
H         45.26354      101.32470       54.70040
N         44.52094      104.30643       58.01572
C         45.73669      104.41055       58.81239
C         47.03063      104.23992       58.02728
O         48.07301      104.42750       58.63862
H         44.36240      105.01744       57.29074
H         45.75107      103.66200       59.63423
H         45.73979      105.41668       59.28361
N         47.07255      103.84912       56.71533
C         48.33029      103.63459       55.98563
C         48.35330      104.45064       54.70466
O         47.38497      104.40067       53.96040
C         48.54096      102.14153       55.63767
C         48.48186      101.24384       56.87639
O         47.59214      101.71034       54.70123
H         46.18991      103.64724       56.22392
H         49.20602      103.91512       56.61211
H         49.56362      102.06056       55.19327
H         48.02718      101.01534       54.14061
H         49.23726      101.56387       57.62458
H         47.47205      101.28157       57.33812
H         48.69336      100.19275       56.58641
N         49.45223      105.17857       54.34864
C         49.51802      105.93614       53.09640
C         49.34854      104.98761       51.91255
O         50.20441      104.13923       51.70065
C         50.86427      106.72709       52.96497
C         50.94002      107.46534       51.59688
C         51.02646      107.72936       54.12661
C         52.27707      108.15725       51.32554
H         50.26581      105.16756       54.98032
H         48.68818      106.67697       53.09930
H         51.70243      105.99531       53.01181
H         50.11623      108.20804       51.51675
H         50.82417      106.72750       50.77985
H         51.00038      107.22732       55.11303
H         52.00828      108.24042       54.07737
H         50.21892      108.49105       54.09743
H         52.25798      108.59854       50.30608
H         52.46849      108.98044       52.04102
H         53.10652      107.41948       51.37294
N         48.25395      105.08596       51.10256
C         48.04342      104.26994       49.91139
C         47.76807      105.17409       48.70872
O         46.79654      104.96118       47.99747
C         46.93410      103.21256       50.18186
C         45.68307      103.83393       50.74081
O         45.33031      103.58176       52.01648
O         45.07384      104.67978       50.10640
H         47.52583      105.77277       51.34061
H         48.96707      103.70119       49.66610
H         47.32599      102.50697       50.94746
H         46.71196      102.62421       49.26568
N         48.62122      106.20077       48.41433
C         48.51094      107.04193       47.22442
C         48.34319      108.52685       47.58370
O         49.18449      109.02930       48.31533
C         49.81822      106.90032       46.40736
C         49.80360      107.76785       45.16688
C         50.63524      108.89959       45.08720
C         48.94666      107.47175       44.09379
C         50.59695      109.72682       43.96133
C         48.91713      108.29803       42.96542
C         49.73847      109.42684       42.90124
H         49.41795      106.36927       49.04267
H         47.68078      106.68363       46.59470
H         49.99751      105.84209       46.11852
H         50.66336      107.20679       47.06394
H         51.29894      109.15435       45.90412
H         48.29997      106.60433       44.13291
H         51.22968      110.60381       43.91359
H         48.25268      108.06724       42.14303
H         49.70874      110.07023       42.03139
N         47.38075      109.33457       47.01379
C         47.45972      110.79714       47.04910
C         47.30959      111.49563       48.38477
O         47.45363      112.71155       48.40157
C         46.32683      111.25184       46.12131
C         46.29015      110.13259       45.11037
C         46.40636      108.91586       46.01898
H         48.44514      111.06829       46.60530
H         45.35789      111.21479       46.67330
H         46.45625      112.27160       45.69956
H         45.39955      110.12710       44.44697
H         47.20851      110.20413       44.48398
H         45.43912      108.72344       46.53374
H         46.68363      108.05241       45.39247
N         46.96889      110.84094       49.52919
C         46.72322      111.56606       50.77730
C         47.97274      112.21070       51.36696
O         47.83798      112.93609       52.34314
C         46.02804      110.65759       51.80646
C         46.92275      109.53513       52.34274
C         46.08297      108.55174       53.09327
O         46.01547      107.30565       52.60577
O         45.44107      108.87732       54.07840
H         46.78684      109.82805       49.48285
H         45.99297      112.37369       50.54377
H         45.13655      110.21931       51.30272
H         45.66531      111.26006       52.66856
H         47.73190      109.94049       52.98735
H         47.39968      108.99370       51.49753
N         49.21705      111.99729       50.85002
C         50.39419      112.62367       51.41044
H         51.29575      112.31515       50.83959
H         50.29839      113.72904       51.35208
H         50.52032      112.31627       52.47012
H         49.35182      111.37322       50.04303
Ca        44.78563      105.48953       53.05730
O         42.06558      106.05030       51.17954
H         42.76102      106.73164       50.99859
H         42.55877      105.19221       51.20657
O         45.53555      106.68634       55.83702
H         44.60630      107.01029       55.94961
H         46.03094      107.08826       56.59355

Ca 1.0



