%chk=apoCaM-CA-Ng.loop1.water3.frame1369.chk
%nprocshared=20
%mem=10GB
%nosave
#b3lyp/svp scf=(tight,noincore,xqc) Test 
#IOP(5/87=12) Density=Current Pop=(MK,readradii) iop(6/33=2) iop(6/42=6)

apoCaM-CA-Ng.loop1.water3.frame1369 

   0  1 
C         20.87704       61.01754       74.01542
C         19.82982       59.97446       73.77259
O         19.62367       59.62122       72.61972
H         21.84965       60.66586       73.61331
H         20.58766       61.95451       73.49171
H         20.98878       61.23656       75.09678
N         19.08700       59.47035       74.80388
C         18.00502       58.51438       74.59580
C         16.68069       59.23277       74.77117
O         15.80764       58.78323       75.50129
C         18.15218       57.30286       75.53574
C         19.46879       56.60422       75.35597
O         19.76179       56.10460       74.28160
O         20.32922       56.51796       76.38872
H         19.24214       59.83144       75.75732
H         18.02057       58.14747       73.55028
H         17.33316       56.57579       75.34273
H         18.06953       57.65143       76.58877
N         16.48905       60.40199       74.10474
C         15.26633       61.18535       74.15199
C         14.15828       60.50016       73.36518
O         13.09891       60.31410       73.94682
C         15.53683       62.64446       73.71309
C         16.52534       63.29209       74.70825
C         16.88172       64.73876       74.36734
C         17.85955       65.28809       75.42096
N         18.26351       66.65746       75.11269
H         17.27501       60.77445       73.55309
H         14.92956       61.27572       75.21107
H         14.58462       63.21865       73.73760
H         15.94256       62.69238       72.68255
H         17.47150       62.71039       74.73246
H         16.07560       63.26583       75.72615
H         15.96106       65.36153       74.35111
H         17.35953       64.77039       73.36414
H         18.76738       64.64425       75.45970
H         17.37613       65.26489       76.42390
H         18.75490       66.68504       74.19001
H         17.42681       67.28387       75.09150
H         18.92033       66.99186       75.85493
N         14.28492       60.01693       72.08980
C         15.50226       60.00407       71.28029
C         16.19944       58.65060       71.44114
O         15.71563       57.83293       72.21351
C         15.15536       60.32579       69.80659
C         14.34341       59.23630       69.16006
O         14.83316       57.98646       69.18129
O         13.27802       59.47583       68.62674
H         13.48024       59.48562       71.71968
H         16.20725       60.78525       71.60603
H         16.09762       60.42254       69.22755
H         14.62986       61.30458       69.74396
N         17.31403       58.32121       70.72094
C         17.98925       57.03494       70.87160
C         17.78990       56.14020       69.67147
O         17.14525       56.53553       68.72111
H         17.68688       58.98506       70.02528
H         17.59921       56.47856       71.74772
H         19.07321       57.21130       71.04313
N         18.28391       54.87393       69.67797
C         18.15445       53.93138       68.55942
C         19.54569       53.40220       68.20429
O         20.47650       53.70067       68.94127
C         17.19976       52.80182       69.00840
C         15.83501       53.36921       69.29915
O         15.04280       53.81019       68.29727
O         15.45289       53.46611       70.45446
H         18.75606       54.54915       70.53673
H         17.72964       54.43940       67.66733
H         17.62257       52.35088       69.93417
H         17.08200       51.99528       68.26474
N         19.83609       52.62877       67.11625
C         18.94457       52.22414       66.04366
C         18.47339       53.39930       65.22921
O         19.27988       54.25159       64.88524
H         20.81541       52.31699       67.01618
H         18.11025       51.59297       66.40326
H         19.53332       51.58962       65.34614
N         17.18385       53.45823       64.80305
C         16.67371       54.54203       63.97421
C         16.58581       55.82009       64.78838
O         16.03627       55.79341       65.87656
C         15.31042       54.15275       63.35351
C         14.77081       55.24404       62.41839
O         14.37139       53.86939       64.35674
H         16.55648       52.67330       65.03729
H         17.35245       54.68575       63.10265
H         15.49326       53.23754       62.73969
H         13.71806       53.23195       63.96490
H         15.50734       55.46973       61.61701
H         13.83150       54.89571       61.94083
H         14.55656       56.17795       62.97796
N         17.07590       56.98493       64.27439
C         17.01463       58.30876       64.89392
C         15.57277       58.68469       65.21227
O         15.01282       58.14519       66.15589
C         17.91423       58.44516       66.16039
C         19.29264       57.76225       65.97142
C         18.05715       59.92754       66.55987
C         20.19057       57.80662       67.21239
H         17.49571       56.94919       63.33329
H         17.42187       59.01177       64.13207
H         17.40802       57.92987       66.98010
H         19.83396       58.20929       65.11204
H         19.11805       56.68804       65.75790
H         18.60200       60.03404       67.52014
H         18.60468       60.48810       65.77245
H         17.06249       60.39705       66.70737
H         20.50482       58.84296       67.44743
H         19.67236       57.37344       68.09116
H         21.10810       57.21016       67.02461
N         14.91072       59.62004       64.48374
C         13.54909       60.04283       64.78889
C         12.57209       59.77107       63.64818
O         11.47478       60.28847       63.73082
C         13.54293       61.52527       65.24722
C         14.10136       62.50273       64.21420
O         14.29666       61.64849       66.42788
H         15.39742       60.06154       63.68885
H         13.12831       59.48564       65.65581
H         12.48694       61.83319       65.44615
H         13.65901       61.62924       67.18917
H         15.17337       62.29777       64.01507
H         13.52810       62.44301       63.26676
H         14.02454       63.53643       64.61396
N         12.86465       58.93926       62.59162
C         11.90170       58.63901       61.51788
C         10.68397       57.91724       62.10644
O         10.73168       56.71134       62.30158
C         12.58067       57.79467       60.39767
C         11.67711       57.59364       59.17348
O         13.79245       58.38217       59.99177
H         13.79477       58.50323       62.55133
H         11.59244       59.60694       61.06519
H         12.82823       56.79381       60.80975
H         13.59026       59.29012       59.64666
H         11.43432       58.57411       58.71053
H         12.20533       56.97091       58.41947
H         10.73266       57.08222       59.45097
N          9.63634       58.65442       62.58468
C          8.57596       58.17821       63.47389
C          9.12581       57.55367       64.75082
O         10.30609       57.24063       64.82303
C          7.54253       57.25617       62.80091
C          6.86663       57.93489       61.59884
C          5.56364       57.23386       61.16964
C          5.68980       55.74565       60.80682
N          6.57417       55.52455       59.66478
H          9.64206       59.66852       62.40387
H          8.02215       59.08853       63.80096
H          6.75758       57.04114       63.55900
H          8.00084       56.29213       62.49319
H          7.58863       58.00756       60.75768
H          6.57253       58.96969       61.88200
H          5.13423       57.78687       60.30605
H          4.83735       57.31210       62.00892
H          4.67271       55.37056       60.55401
H          6.04878       55.16299       61.68280
H          7.55340       55.79952       59.90318
H          6.56339       54.50686       59.42489
H          6.23737       56.07024       58.83880
N          8.32328       57.39610       65.83786
C          8.79408       56.83981       67.10356
C         10.02738       57.58263       67.61384
O         11.02328       56.91416       67.85102
C          7.68288       56.82337       68.17531
C          6.50992       55.90582       67.80154
C          5.44172       55.96269       68.85553
O          5.09649       54.85054       69.53079
O          4.87366       57.01639       69.09785
H          7.34754       57.72529       65.76919
H          9.09361       55.77814       66.93846
H          7.29548       57.84265       68.34235
H          8.11327       56.45347       69.13329
H          6.88106       54.86275       67.69998
H          6.05658       56.21193       66.83675
N         10.10398       58.93550       67.78530
C          9.06192       59.89400       67.49635
H          8.19335       59.75138       68.16011
H          9.44672       60.91890       67.68556
H          8.76581       59.84275       66.43043
H         10.99284       59.32524       68.11782
Ca        14.39778       55.97347       68.28887
O         12.16201       53.79855       67.04556
H         11.74460       53.75646       66.14877
H         12.42410       52.86399       67.24077
O         13.13383       56.20220       65.39349
H         12.67307       57.03319       65.66581
H         12.52480       55.77641       64.74063
O         12.86897       55.86578       71.16519
H         13.61813       55.30873       70.83829
H         13.17163       56.18597       72.05154

Ca 1.0



