%chk=apoCaM-CA-Ng.loop3.water3.frame931.chk
%nprocshared=20
%mem=10GB
%nosave
#b3lyp/svp scf=(tight,noincore,xqc) Test 
#IOP(5/87=12) Density=Current Pop=(MK,readradii) iop(6/33=2) iop(6/42=6)

apoCaM-CA-Ng.loop3.water3.frame931 

   0  1 
C        -28.03826        4.90976       -6.04365
C        -29.37391        4.25960       -6.21620
O        -29.43091        3.18542       -6.79991
H        -27.24130        4.28611       -6.50477
H        -28.04252        5.90408       -6.53528
H        -27.81894        5.02638       -4.96258
N        -30.50364        4.86258       -5.74024
C        -31.82995        4.26797       -5.87405
C        -32.68386        5.13463       -6.80487
O        -32.25100        6.23050       -7.14123
C        -32.42808        4.06338       -4.45022
C        -33.30421        2.81566       -4.31109
O        -33.71354        2.58384       -2.99605
O        -34.45467        2.83078       -5.08178
H        -30.41891        5.77771       -5.26982
H        -31.70825        3.28049       -6.34243
H        -32.90488        4.99124       -4.06712
H        -31.58090        3.82940       -3.76786
N        -33.89234        4.71504       -7.28129
C        -34.75629        5.51387       -8.14345
C        -35.98989        6.02157       -7.39727
O        -36.67808        6.87794       -7.92941
C        -35.13663        4.72253       -9.42087
C        -36.01077        3.47728       -9.14448
C        -36.41891        2.76943      -10.44335
C        -37.35755        1.58544      -10.15841
N        -37.81905        0.96926      -11.40205
H        -34.22457        3.78873       -7.03132
H        -34.20591        6.42694       -8.45753
H        -34.20556        4.40934       -9.94283
H        -35.69876        5.40196      -10.09704
H        -36.93455        3.79519       -8.61436
H        -35.46789        2.75041       -8.50870
H        -35.51198        2.40351      -10.97417
H        -36.94934        3.49518      -11.09595
H        -38.24394        1.94280       -9.58766
H        -36.82746        0.82514       -9.54304
H        -37.00631        0.62831      -11.96221
H        -38.44315        0.16128      -11.17433
H        -38.36009        1.66379      -11.96634
N        -36.32296        5.54392       -6.16145
C        -37.41075        6.05799       -5.33896
C        -36.85642        6.47174       -3.97477
O        -37.04284        7.62586       -3.60805
C        -38.60530        5.07546       -5.31987
C        -38.30055        3.64006       -5.01084
O        -38.52382        2.77742       -5.84428
O        -37.85078        3.27979       -3.80635
H        -35.78359        4.77016       -5.76694
H        -37.84461        6.97794       -5.79224
H        -39.04339        5.09138       -6.34311
H        -39.38471        5.45009       -4.62166
N        -36.09356        5.63265       -3.21018
C        -35.41987        6.04071       -1.98358
C        -35.72107        5.16048       -0.78285
O        -35.08842        5.36385        0.23891
H        -35.89513        4.68084       -3.54729
H        -35.64645        7.09529       -1.71262
H        -34.32687        5.97376       -2.17159
N        -36.67334        4.18074       -0.82097
C        -36.98058        3.30420        0.31275
C        -36.82937        1.83140       -0.05949
O        -36.55458        1.52202       -1.19963
C        -38.38311        3.65893        0.86742
C        -39.61380        3.50659       -0.01620
N        -39.60284        2.92803       -1.24165
O        -40.67426        3.92872        0.41851
H        -37.22651        4.07869       -1.67006
H        -36.26209        3.49247        1.13880
H        -38.33018        4.73228        1.15573
H        -38.56806        3.08153        1.79782
H        -38.76113        2.51920       -1.65067
H        -40.47178        2.86567       -1.79275
N        -36.99426        0.85783        0.87980
C        -36.94087       -0.56698        0.57500
C        -35.59813       -1.03069        0.04080
O        -34.58776       -0.79817        0.68866
H        -37.20222        1.13213        1.84925
H        -37.75417       -0.82364       -0.13752
H        -37.13584       -1.12693        1.51514
N        -35.53094       -1.77295       -1.10669
C        -34.29485       -2.40020       -1.58481
C        -33.48818       -1.43850       -2.44439
O        -33.90012       -0.30221       -2.60111
C        -34.61219       -3.66999       -2.41820
C        -35.55781       -4.63396       -1.74615
C        -36.72530       -5.03723       -2.41725
C        -35.28687       -5.15263       -0.46911
C        -37.60496       -5.94381       -1.82444
C        -36.17643       -6.05209        0.12796
C        -37.33485       -6.45315       -0.54737
O        -38.17753       -7.32840        0.03638
H        -36.41476       -2.00829       -1.58426
H        -33.68947       -2.73221       -0.71334
H        -33.67162       -4.22152       -2.62342
H        -35.03538       -3.37090       -3.39707
H        -36.95128       -4.65979       -3.40730
H        -34.39360       -4.85988        0.06706
H        -38.49423       -6.24999       -2.36093
H        -35.96281       -6.44093        1.11530
H        -38.98408       -7.63449       -0.40279
N        -32.34621       -1.85894       -3.07482
C        -31.55394       -1.07824       -4.02688
C        -32.39967       -0.73369       -5.25367
O        -33.31801        0.05960       -5.12109
C        -30.93658        0.19152       -3.35453
C        -30.03907        1.02302       -4.30913
C        -30.18345       -0.16283       -2.05978
C        -28.76817        0.31713       -4.78974
H        -32.01614       -2.81839       -2.90039
H        -30.71897       -1.73380       -4.35615
H        -31.76358        0.86271       -3.05279
H        -29.73145        1.95499       -3.78498
H        -30.63174        1.32663       -5.19659
H        -29.35018       -0.86777       -2.25440
H        -29.78089        0.75885       -1.58709
H        -30.87022       -0.63582       -1.32685
H        -28.11055        0.05464       -3.93594
H        -29.01089       -0.59643       -5.36783
H        -28.19784        1.00275       -5.45104
N        -32.18182       -1.30916       -6.47710
C        -32.98597       -0.95023       -7.64842
C        -32.95713       -1.98772       -8.75478
O        -31.89265       -2.38091       -9.21285
C        -32.53452        0.38751       -8.25765
O        -32.71938        1.43578       -7.36051
H        -31.45998       -2.04030       -6.56598
H        -34.04767       -0.83676       -7.33754
H        -33.11381        0.60884       -9.18599
H        -31.46321        0.34213       -8.54738
H        -33.69927        1.57726       -7.30084
N        -34.14187       -2.34224       -9.32882
C        -34.28930       -3.13651      -10.53839
C        -34.69750       -2.17396      -11.64752
O        -35.62011       -1.40501      -11.41747
C        -35.36719       -4.19793      -10.30821
H        -35.00660       -1.91482       -8.95836
H        -33.34661       -3.66037      -10.78953
H        -35.50595       -4.81568      -11.21780
H        -35.06753       -4.86584       -9.47370
H        -36.33890       -3.72166      -10.05211
N        -34.06521       -2.07696      -12.85493
C        -33.08272       -3.02936      -13.37162
C        -33.80657       -4.34040      -13.71404
O        -35.03014       -4.33268      -13.69195
C        -32.44656       -2.42086      -14.63589
H        -34.36366       -1.30655      -13.47584
H        -32.27903       -3.16721      -12.62216
H        -33.22004       -2.24543      -15.41464
H        -31.97825       -1.44595      -14.38113
H        -31.65289       -3.04193      -15.07609
N        -33.19708       -5.51052      -14.07421
C        -31.76592       -5.78128      -14.10447
C        -31.19500       -5.72000      -12.70271
O        -30.29233       -4.93072      -12.46320
C        -31.51866       -7.17023      -14.74047
C        -30.02764       -7.49110      -14.90880
C        -29.84882       -8.82355      -15.57800
O        -30.32247       -9.94206      -14.99570
O        -29.27098       -8.90035      -16.65049
H        -33.82717       -6.28786      -14.33306
H        -31.25778       -5.05912      -14.76426
H        -31.98673       -7.17427      -15.75088
H        -32.00892       -7.96373      -14.13491
H        -29.52473       -7.52065      -13.91933
H        -29.55118       -6.69748      -15.52606
N        -31.67786       -6.54259      -11.72801
C        -31.17162       -6.56296      -10.37123
H        -30.34862       -5.83508      -10.21410
H        -31.99582       -6.32211       -9.66796
H        -30.78821       -7.57948      -10.14088
H        -32.44339       -7.19520      -11.95321
Ca       -35.66942        1.60166       -3.66440
O        -38.23695       -0.18324       -3.26925
H        -38.70309        0.02010       -2.42008
H        -38.59671       -1.06361       -3.54384
O        -35.92538       -1.60932       -4.95343
H        -35.31946       -2.09958       -5.56398
H        -36.71466       -2.19963       -4.86252
O        -36.44229        0.50362       -6.75229
H        -37.07849       -0.18410       -7.07265
H        -36.81309        1.35662       -7.08558

Ca 1.0



