%chk=apoCaM-CA-Ng.loop3.water3.frame703.chk
%nprocshared=20
%mem=10GB
%nosave
#b3lyp/svp scf=(tight,noincore,xqc) Test 
#IOP(5/87=12) Density=Current Pop=(MK,readradii) iop(6/33=2) iop(6/42=6)

apoCaM-CA-Ng.loop3.water3.frame703 

   0  1 
C         80.69205      -14.63070      -25.83207
C         80.20864      -15.75040      -26.70154
O         80.44538      -15.71826      -27.90087
H         81.24480      -13.87720      -26.43368
H         79.83011      -14.14054      -25.33664
H         81.38084      -15.03605      -25.05999
N         79.55533      -16.81034      -26.14917
C         79.17463      -17.97403      -26.93451
C         78.04836      -17.64666      -27.90477
O         76.95902      -17.29394      -27.47582
C         78.80885      -19.15918      -26.01608
C         78.76895      -20.47325      -26.75602
O         78.68940      -21.51681      -26.12902
O         78.88595      -20.51439      -28.09784
H         79.41364      -16.82153      -25.12698
H         80.08656      -18.29539      -27.48313
H         77.86389      -18.97243      -25.46464
H         79.62349      -19.26106      -25.26816
N         78.25986      -17.76705      -29.24286
C         77.24720      -17.53629      -30.27223
C         76.02707      -18.43563      -30.11495
O         74.92689      -17.97083      -30.37761
C         77.85313      -17.65089      -31.69923
C         78.58209      -18.97658      -32.01680
C         79.21659      -18.93804      -33.41641
C         80.19094      -20.11018      -33.60936
N         80.82583      -20.06472      -34.92593
H         79.20598      -18.03284      -29.53258
H         76.88940      -16.48591      -30.18208
H         78.59780      -16.83081      -31.80351
H         77.05218      -17.47415      -32.45111
H         77.89516      -19.84479      -31.93651
H         79.40926      -19.12358      -31.29789
H         79.80270      -17.99955      -33.52859
H         78.41852      -18.95389      -34.19070
H         79.65709      -21.07660      -33.48688
H         80.98393      -20.04438      -32.83132
H         81.54186      -20.82496      -34.98506
H         80.10958      -20.21152      -35.67295
H         81.30436      -19.14520      -35.06814
N         76.14354      -19.72646      -29.69847
C         75.02058      -20.65205      -29.56401
C         74.79399      -21.12264      -28.12202
O         73.87383      -21.90010      -27.90862
C         75.22096      -21.81534      -30.56065
C         76.55064      -22.51516      -30.43863
O         76.88688      -23.16309      -29.31389
O         77.33542      -22.50029      -31.37350
H         77.08024      -20.08309      -29.49003
H         74.06780      -20.15631      -29.85197
H         75.15997      -21.38416      -31.58433
H         74.39718      -22.55289      -30.45872
N         75.53122      -20.65134      -27.07331
C         75.27700      -20.98231      -25.67376
C         75.55209      -22.41904      -25.25975
O         75.38788      -22.70110      -24.08261
H         76.25847      -19.95076      -27.25389
H         74.22398      -20.72810      -25.42315
H         75.93147      -20.34598      -25.04051
N         75.95083      -23.38021      -26.14079
C         76.19124      -24.77206      -25.76241
C         77.57690      -25.22357      -26.19468
O         78.26244      -24.48465      -26.88704
C         75.07528      -25.64730      -26.37225
C         75.02604      -25.58419      -27.88288
N         73.97093      -25.02313      -28.51944
O         75.94789      -26.04465      -28.53786
H         76.05323      -23.13602      -27.12608
H         76.13796      -24.88573      -24.65880
H         74.11199      -25.27786      -25.95730
H         75.18487      -26.70665      -26.05716
H         73.18543      -24.61825      -27.98983
H         73.94544      -24.97804      -29.54903
N         78.05518      -26.44779      -25.81792
C         79.34082      -26.95224      -26.27558
C         80.50245      -26.05619      -25.89191
O         80.38019      -25.22852      -24.99901
H         77.47668      -27.05564      -25.22008
H         79.29451      -27.01299      -27.38488
H         79.52309      -27.98212      -25.89588
N         81.65812      -26.14082      -26.60630
C         82.81154      -25.25317      -26.43826
C         82.47365      -23.79191      -26.71828
O         81.34067      -23.45818      -27.02674
C         83.93138      -25.69594      -27.42054
C         84.63323      -26.93701      -26.95146
C         84.52031      -28.14522      -27.65206
C         85.45300      -26.87091      -25.81156
C         85.21764      -29.27544      -27.21379
C         86.15628      -27.99635      -25.38208
C         86.04249      -29.20215      -26.07976
O         86.73297      -30.27888      -25.65570
H         81.69919      -26.86061      -27.34591
H         83.18267      -25.30512      -25.39156
H         84.73606      -24.94348      -27.53625
H         83.49221      -25.82120      -28.43339
H         83.89468      -28.21178      -28.53330
H         85.56337      -25.93951      -25.26800
H         85.12209      -30.20436      -27.76022
H         86.79578      -27.92683      -24.51085
H         86.69033      -31.12952      -26.11442
N         83.47360      -22.86634      -26.63558
C         83.36968      -21.44415      -26.92312
C         82.86532      -21.23744      -28.38761
O         81.57331      -20.72004      -28.35969
C         82.52797      -20.68452      -25.83503
C         82.65031      -19.13585      -25.95564
C         82.86714      -21.13968      -24.40551
C         84.04607      -18.56628      -25.67182
H         84.41209      -23.19042      -26.36017
H         84.41057      -21.06744      -26.85023
H         81.45831      -20.95127      -25.96896
H         81.94932      -18.66483      -25.23363
H         82.34671      -18.80527      -26.96771
H         83.93810      -20.98421      -24.16971
H         82.24133      -20.58444      -23.67318
H         82.63519      -22.21797      -24.27814
H         84.01604      -17.46086      -25.76767
H         84.37199      -18.80377      -24.63895
H         84.79998      -18.94404      -26.38932
N         83.76574      -20.39634      -29.20224
C         83.21161      -20.02058      -30.52675
C         84.22956      -20.19605      -31.64240
O         83.85626      -19.99917      -32.79225
C         82.75068      -18.54602      -30.54015
O         81.76512      -18.32401      -29.57730
H         84.11901      -19.56403      -28.67683
H         82.35408      -20.68409      -30.78303
H         82.34054      -18.29129      -31.54363
H         83.62744      -17.89138      -30.32754
H         81.51128      -17.36942      -29.66823
N         85.53025      -20.53599      -31.40365
C         86.50812      -20.66420      -32.48421
C         86.15531      -21.81809      -33.41560
O         85.31142      -22.62375      -33.04636
C         87.89919      -20.87719      -31.88429
H         85.84562      -20.66717      -30.43146
H         86.49604      -19.71184      -33.05947
H         87.91222      -21.78754      -31.24948
H         88.65852      -21.00875      -32.66949
H         88.17253      -19.99866      -31.26005
N         86.68611      -21.97219      -34.66703
C         87.62608      -21.07344      -35.33667
C         88.75900      -21.86559      -35.97800
O         88.48806      -22.94429      -36.48815
C         86.87739      -20.35054      -36.45901
H         86.32115      -22.75963      -35.22741
H         88.00725      -20.28152      -34.66851
H         87.56118      -19.65811      -36.99623
H         86.46076      -21.07713      -37.19011
H         86.04226      -19.75581      -36.03240
N         90.02249      -21.37813      -36.14889
C         90.51877      -20.09781      -35.65779
C         90.80910      -20.20393      -34.17937
O         90.33279      -19.37519      -33.41639
C         91.79988      -19.68424      -36.41659
C         91.50356      -19.43323      -37.90698
C         92.73169      -18.98990      -38.64606
O         92.75612      -17.78757      -39.25280
O         93.70572      -19.72205      -38.71757
H         90.67305      -21.96071      -36.70088
H         89.78122      -19.28730      -35.85224
H         92.58542      -20.46407      -36.30653
H         92.18510      -18.73563      -35.97886
H         90.72584      -18.64248      -37.99480
H         91.11670      -20.35541      -38.38928
N         91.58129      -21.22025      -33.70244
C         91.85996      -21.38880      -32.29345
H         92.41797      -20.51099      -31.90725
H         90.91105      -21.50636      -31.72863
H         92.47307      -22.30235      -32.13767
H         91.96527      -21.91713      -34.35878
Ca        79.99880      -22.17360      -29.09521
O         80.79643      -22.83734      -31.84999
H         80.29797      -23.56846      -32.29374
H         81.72371      -22.92397      -32.18548
O         81.31959      -24.90925      -29.70682
H         82.10824      -24.77954      -30.29079
H         81.12427      -25.87793      -29.76344
O         78.48227      -25.38656      -30.46294
H         78.32249      -25.60283      -29.51030
H         77.91087      -26.02145      -30.96274

Ca 1.0



