%chk=apoCaM-CA-Ng.loop4.water4.frame133.chk
%nprocshared=20
%mem=10GB
%nosave
#b3lyp/svp scf=(tight,noincore,xqc) Test 
#IOP(5/87=12) Density=Current Pop=(MK,readradii) iop(6/33=2) iop(6/42=6)

apoCaM-CA-Ng.loop4.water4.frame133 

   -3  1 
C         50.01133       44.20432        8.53896
C         50.85667       43.09312        9.07886
O         51.64931       42.55374        8.32082
H         49.34233       44.62125        9.31909
H         50.67622       45.01554        8.17105
H         49.39782       43.82929        7.69402
N         50.77999       42.72467       10.39398
C         51.65126       41.72743       11.00717
C         53.10021       42.08000       10.72780
O         53.78853       41.33529       10.05304
C         51.22475       40.25968       10.72445
C         51.06441       39.82822        9.29511
O         51.74795       38.92062        8.85192
O         50.08102       40.34619        8.53469
H         50.13873       43.24016       11.01519
H         51.54189       41.79632       12.11351
H         50.24290       40.08280       11.21469
H         51.96228       39.59479       11.22947
N         53.58500       43.25284       11.23875
C         54.92938       43.82493       11.12842
C         55.98094       42.98376       11.84556
O         56.48029       43.44342       12.86395
C         55.31673       44.22411        9.67869
C         56.68722       44.95802        9.61770
C         54.22350       45.10391        9.04345
C         56.78528       46.24869       10.44565
H         52.91723       43.81995       11.78499
H         54.87006       44.78080       11.69400
H         55.40358       43.30736        9.05906
H         56.89219       45.21987        8.55957
H         57.49182       44.27169        9.95729
H         53.27297       44.54468        8.96031
H         54.03345       46.01815        9.64102
H         54.52004       45.41473        8.02379
H         56.02985       46.99364       10.12484
H         56.66554       46.05010       11.52895
H         57.79003       46.69945       10.30921
N         56.36551       41.75165       11.40570
C         57.29156       40.91256       12.15096
C         58.73858       41.38933       11.97115
O         59.33910       41.73027       12.98003
C         57.05532       39.40607       11.85267
C         55.66693       38.93349       12.21486
O         55.36815       37.76361       12.03596
O         54.74613       39.77569       12.72470
H         55.96551       41.36527       10.54731
H         57.04476       40.99506       13.23540
H         57.78353       38.80832       12.44174
H         57.17778       39.15705       10.79080
N         59.39866       41.46448       10.77176
C         58.80079       41.10369        9.49829
C         59.74150       41.14154        8.30866
O         60.88979       41.52906        8.46975
H         60.37695       41.79045       10.79145
H         57.94487       41.77804        9.30965
H         58.50741       40.07010        9.57420
N         59.35659       40.75230        7.04930
C         58.03529       40.26483        6.62863
C         56.97380       41.29942        6.96473
O         56.08495       41.00174        7.75011
C         57.69881       38.84788        7.17660
C         58.72003       37.79315        6.83740
O         58.51074       36.52529        7.23929
O         59.73083       38.06129        6.20710
H         60.06332       40.83534        6.30132
H         58.04166       40.13093        5.52396
H         56.73163       38.52773        6.73640
H         57.54805       38.83456        8.26456
N         57.00854       42.56972        6.46773
C         57.94543       43.04717        5.46600
C         58.88631       44.07178        6.03309
O         58.80215       44.41162        7.20398
H         56.32135       43.24760        6.82021
H         57.37842       43.48006        4.61466
H         58.56401       42.23025        5.05442
N         59.87364       44.56511        5.24167
C         60.89492       45.47563        5.74510
C         60.36762       46.89334        5.92802
O         61.11254       47.71687        6.44460
C         62.10600       45.50098        4.78747
C         62.73636       44.10336        4.61168
C         63.92568       44.10048        3.68395
N         64.55820       42.93594        3.41269
O         64.32092       45.13622        3.16788
H         59.93520       44.21475        4.27363
H         61.25607       45.08957        6.72535
H         62.88059       46.18412        5.20141
H         61.78172       45.88902        3.79624
H         61.99134       43.39877        4.18847
H         63.05737       43.71676        5.60312
H         64.23351       42.05210        3.83237
H         65.36904       42.91520        2.77696
N         59.13025       47.27194        5.48780
C         58.63816       48.64680        5.55209
C         58.50044       49.26214        4.16898
O         58.28266       50.46303        4.10523
C         57.30864       48.75094        6.34645
C         57.55507       48.50980        7.83635
C         56.22547       47.79033        5.82384
H         58.52908       46.57305        5.03074
H         59.38848       49.29553        6.05777
H         56.92431       49.79137        6.25250
H         57.96308       47.49294        8.00667
H         58.27963       49.25792        8.22487
H         56.60709       48.63126        8.40149
H         55.27433       47.95368        6.37265
H         56.03928       47.95716        4.74209
H         56.51862       46.73063        5.98045
N         58.65735       48.53442        3.02295
C         58.71789       49.15217        1.70759
C         57.54074       48.72790        0.85057
O         56.80202       49.60199        0.41524
C         60.06915       48.79116        1.05466
C         61.23793       49.22778        1.90879
N         61.44313       50.53432        2.19565
O         62.00793       48.38644        2.34893
H         58.79785       47.51713        3.06516
H         58.67399       50.26044        1.78671
H         60.15201       49.26740        0.05412
H         60.12914       47.68956        0.92507
H         60.81228       51.26212        1.83131
H         62.23938       50.82035        2.78482
N         57.31646       47.42064        0.53471
C         56.24754       46.99079       -0.36924
C         55.35812       45.92606        0.24274
O         55.77572       45.26242        1.17924
C         56.84061       46.46204       -1.69777
C         57.91896       45.42151       -1.48396
C         59.23031       45.83672       -1.19608
C         57.63833       44.04812       -1.55681
C         60.23978       44.90258       -0.96504
C         58.65265       43.10979       -1.32606
C         59.95661       43.53625       -1.02600
O         60.94320       42.64671       -0.79601
H         57.95763       46.70819        0.91474
H         55.58510       47.84890       -0.61635
H         57.28411       47.30422       -2.27134
H         56.02458       46.05615       -2.33492
H         59.46645       46.89105       -1.14797
H         56.63684       43.70440       -1.77814
H         61.24189       45.24390       -0.73633
H         58.42435       42.05289       -1.37602
H         60.79390       41.69141       -0.82663
N         54.13885       45.67272       -0.33406
C         53.18128       44.62402        0.02138
C         52.38814       44.90286        1.29922
O         51.16666       44.84784        1.23818
C         53.83109       43.22439       -0.04247
C         52.78480       42.09628       -0.01339
C         53.42552       40.76164       -0.27246
O         53.09350       40.10110       -1.24484
O         54.36887       40.28666        0.56233
H         53.88326       46.24312       -1.15514
H         52.41870       44.61693       -0.79253
H         54.57070       43.08098        0.77293
H         54.36117       43.15491       -1.01823
H         52.02541       42.28079       -0.80659
H         52.26722       42.07278        0.96871
N         52.98551       45.19485        2.48737
C         52.25012       45.37266        3.73622
C         51.31001       46.57379        3.72792
O         50.53507       46.69499        4.66757
C         53.22532       45.54927        4.92482
C         54.30403       44.46246        5.07636
C         53.74744       43.08968        5.30395
O         53.96575       42.47637        6.48050
O         53.14192       42.50902        4.41803
H         53.99819       45.25592        2.52079
H         51.64119       44.45711        3.89718
H         52.64372       45.59934        5.87274
H         53.75625       46.51879        4.80072
H         54.92047       44.75346        5.94468
H         54.99779       44.42869        4.21321
N         51.33995       47.51955        2.74365
C         50.47531       48.68380        2.73423
H         49.77294       48.70311        3.59433
H         51.09733       49.60263        2.77463
H         49.87993       48.69284        1.79803
H         52.01701       47.44375        1.97249
Ca        53.33958       40.35089        6.88227
O         52.83458       37.51466        5.77403
H         52.30455       37.04489        6.46578
H         52.17443       37.76170        5.07897
O         55.20631       39.42169        4.74469
H         55.12979       39.84996        3.85602
H         55.31694       38.45698        4.55109
O         51.09460       40.41212        5.07511
H         51.06118       41.27880        5.55325
H         50.24757       40.37619        4.56614
O         54.49177       37.88173        8.35739
H         54.79574       38.30363        9.19968
H         55.11389       37.12504        8.21566

Ca 1.0



