%chk=apoCaM-CA-Ng.loop3.water3.frame888.chk
%nprocshared=20
%mem=10GB
%nosave
#b3lyp/svp scf=(tight,noincore,xqc) Test 
#IOP(5/87=12) Density=Current Pop=(MK,readradii) iop(6/33=2) iop(6/42=6)

apoCaM-CA-Ng.loop3.water3.frame888 

   0  1 
C         36.04795      -10.88377        5.39440
C         37.14690      -11.46878        4.55418
O         36.84448      -12.09904        3.55271
H         35.37909      -11.68976        5.75984
H         36.45265      -10.33013        6.26750
H         35.45586      -10.17279        4.77842
N         38.45478      -11.27540        4.88820
C         39.56790      -11.72300        4.05421
C         39.58507      -13.24517        3.96097
O         39.71018      -13.89845        4.98814
C         40.89943      -11.18851        4.63135
C         42.01618      -11.16361        3.62142
O         42.72913      -10.03785        3.44311
O         42.28686      -12.14294        2.95515
H         38.65991      -10.73320        5.74169
H         39.43650      -11.27028        3.05247
H         41.17563      -11.78430        5.52656
H         40.77142      -10.13559        4.96451
N         39.42291      -13.87898        2.76427
C         39.35236      -15.33620        2.64264
C         40.67890      -16.00592        2.99754
O         40.66400      -17.12464        3.49045
C         38.89222      -15.72780        1.21771
C         38.41425      -17.18718        1.11318
C         37.82220      -17.46994       -0.27744
C         37.14681      -18.84828       -0.33208
N         36.54080      -19.08347       -1.64338
H         39.28613      -13.30175        1.92111
H         38.55818      -15.68114        3.34287
H         39.69117      -15.51829        0.47445
H         38.01259      -15.09310        0.96898
H         37.61305      -17.33758        1.86990
H         39.24200      -17.89790        1.32446
H         38.62281      -17.40275       -1.04657
H         37.04729      -16.70514       -0.50439
H         36.34877      -18.89202        0.44321
H         37.88962      -19.64724       -0.11627
H         36.05193      -20.00788       -1.63520
H         35.83866      -18.33730       -1.85622
H         37.27819      -19.09460       -2.38453
N         41.86404      -15.37757        2.74208
C         43.18881      -15.94957        2.99647
C         44.00139      -15.12502        4.01154
O         45.15342      -15.45437        4.25692
C         43.94407      -16.09497        1.65564
C         44.39215      -14.77409        1.09861
O         43.51829      -13.78886        0.83408
O         45.58355      -14.55928        0.95866
H         41.81848      -14.44419        2.32317
H         43.08394      -16.97527        3.41217
H         43.30586      -16.62771        0.91959
H         44.85054      -16.71677        1.83148
N         43.44342      -14.07542        4.67651
C         44.09029      -13.30915        5.72830
C         45.14788      -12.27836        5.34510
O         45.53116      -11.58528        6.27819
H         42.44483      -13.88272        4.53836
H         44.49329      -14.00001        6.49970
H         43.29112      -12.71520        6.22558
N         45.67928      -12.07383        4.08928
C         46.65420      -10.98810        3.85269
C         46.26347      -10.03477        2.68189
O         46.39831      -10.66985        1.44207
C         48.12618      -11.48503        3.78788
C         48.58878      -12.05952        2.47087
N         48.06651      -13.19815        1.97210
O         49.46468      -11.47810        1.84581
H         45.40696      -12.69410        3.31562
H         46.65534      -10.33778        4.75312
H         48.31633      -12.20669        4.61156
H         48.77108      -10.59903        3.98625
H         47.34725      -13.71429        2.49204
H         48.39556      -13.56478        1.06570
N         47.13495       -8.85097        2.72333
C         47.08569       -7.98678        1.53503
C         45.71611       -7.39737        1.28984
O         45.15119       -6.80088        2.19550
H         46.90750       -8.28651        3.57424
H         47.45843       -8.53568        0.64172
H         47.79382       -7.14781        1.70244
N         45.15063       -7.47156        0.05177
C         43.85957       -6.86544       -0.27252
C         42.71000       -7.61306        0.38053
O         42.94512       -8.60913        1.04769
C         43.68599       -6.79709       -1.80853
C         44.70081       -5.85243       -2.41477
C         44.65924       -4.48163       -2.09741
C         45.69047       -6.31906       -3.29499
C         45.59221       -3.59757       -2.64298
C         46.62656       -5.43103       -3.83864
C         46.58164       -4.06990       -3.51501
O         47.49039       -3.22721       -4.04641
H         45.69194       -7.92222       -0.70298
H         43.83975       -5.82683        0.12285
H         42.68188       -6.41561       -2.08738
H         43.78119       -7.82361       -2.22707
H         43.90145       -4.09360       -1.42819
H         45.74385       -7.36857       -3.55479
H         45.54420       -2.54643       -2.38616
H         47.38926       -5.80127       -4.51173
H         47.49170       -2.27985       -3.84640
N         41.43084       -7.14399        0.24738
C         40.23673       -7.70880        0.87882
C         39.95155       -9.12117        0.37573
O         40.80411       -9.98718        0.50090
C         40.32490       -7.65456        2.43466
C         39.01768       -8.13343        3.12769
C         40.72085       -6.25305        2.93448
C         37.77632       -7.27236        2.87182
H         41.28611       -6.28963       -0.31160
H         39.38618       -7.05750        0.58834
H         41.12404       -8.34218        2.76218
H         39.18864       -8.16711        4.22582
H         38.78238       -9.16188        2.79757
H         41.71692       -5.96264        2.53995
H         39.98752       -5.48606        2.61228
H         40.79063       -6.24874        4.04332
H         37.92222       -6.23806        3.24307
H         37.51349       -7.24546        1.79625
H         36.91386       -7.71015        3.41724
N         38.72757       -9.43690       -0.14299
C         38.37828      -10.78759       -0.58505
C         37.75436      -10.84278       -1.97194
O         37.55057      -11.94845       -2.45903
C         37.39249      -11.39482        0.41681
O         36.21222      -10.63649        0.45237
H         37.99574       -8.71286       -0.13581
H         39.28540      -11.42648       -0.60099
H         37.88325      -11.38337        1.40824
H         37.15430      -12.44630        0.14205
H         35.76044      -10.85457        1.30784
N         37.33781       -9.72694       -2.63620
C         36.59126       -9.80742       -3.88735
C         37.45943      -10.29487       -5.03480
O         38.67481      -10.26404       -4.89755
C         36.03053       -8.42803       -4.22489
H         37.46701       -8.80071       -2.20777
H         35.74343      -10.50865       -3.72665
H         36.85148       -7.68849       -4.33680
H         35.47684       -8.46360       -5.16943
H         35.34593       -8.09004       -3.41704
N         36.94877      -10.77592       -6.21011
C         35.54216      -11.09441       -6.46633
C         35.24477      -11.00715       -7.96081
O         36.00385      -11.59290       -8.72181
C         35.28690      -12.53499       -6.00941
H         37.64090      -11.12924       -6.89037
H         34.85614      -10.46215       -5.87907
H         35.48868      -12.63485       -4.92204
H         34.22632      -12.81213       -6.19257
H         35.94394      -13.24731       -6.55375
N         34.15187      -10.38749       -8.50270
C         33.06911       -9.74052       -7.76780
C         33.50988       -8.47415       -7.06442
O         33.18387       -8.30863       -5.89698
C         31.82297       -9.46472       -8.66231
C         31.90762       -8.37390       -9.75356
C         32.83660       -8.69913      -10.88641
O         32.64782       -9.69401      -11.56844
O         33.86059       -7.87596      -11.18122
H         34.05112      -10.47434       -9.52245
H         32.69060      -10.46510       -7.01084
H         31.00824       -9.14242       -7.97570
H         31.49127      -10.42010       -9.12553
H         32.17893       -7.40044       -9.29653
H         30.89321       -8.25157      -10.19129
N         34.22928       -7.52126       -7.71882
C         34.61617       -6.27303       -7.09737
H         35.19682       -5.65794       -7.81672
H         33.71106       -5.70668       -6.79266
H         35.25079       -6.45698       -6.20872
H         34.51373       -7.68274       -8.69467
Ca        44.48825      -11.78321        0.99277
O         42.54132      -10.67790       -1.81031
H         41.68496      -10.57642       -2.29730
H         43.19755      -10.92016       -2.51030
O         46.28831      -11.87713       -1.48025
H         45.49273      -11.85189       -2.06861
H         46.26488      -12.77915       -1.07286
O         41.20576      -13.19278       -0.75525
H         40.56316      -13.62714       -1.36969
H         40.96623      -13.53913        0.13976

Ca 1.0



