%chk=apoCaM-CA-Ng.loop1.water4.frame96.chk
%nprocshared=20
%mem=10GB
%nosave
#b3lyp/svp scf=(tight,noincore,xqc) Test 
#IOP(5/87=12) Density=Current Pop=(MK,readradii) iop(6/33=2) iop(6/42=6)

apoCaM-CA-Ng.loop1.water4.frame96 

   0  1 
C         59.12830       33.53494       96.79379
C         58.69330       32.10915       96.94230
O         58.71411       31.58941       98.04962
H         59.98906       33.59059       96.09554
H         58.28874       34.13933       96.39045
H         59.43282       33.95723       97.77526
N         58.26561       31.40986       95.85286
C         57.77357       30.03877       95.94274
C         58.84473       29.00485       96.31885
O         58.49382       27.84957       96.47463
C         56.94617       29.65253       94.69630
C         57.72113       29.50034       93.42427
O         57.66185       28.44500       92.81796
O         58.42176       30.52714       92.90682
H         58.21775       31.90878       94.95223
H         57.02679       30.03088       96.74600
H         56.16307       30.42656       94.53839
H         56.41902       28.69429       94.90616
N         60.14903       29.34555       96.53839
C         61.18060       28.41586       97.00233
C         61.65494       28.83356       98.39887
O         61.80287       30.02917       98.60600
C         62.40213       28.47718       96.05403
C         62.29102       27.69046       94.73966
C         61.28218       28.21168       93.71245
C         61.43412       27.40549       92.40700
N         60.54650       27.89196       91.35465
H         60.44085       30.32289       96.41496
H         60.80797       27.37956       97.04810
H         63.25990       28.00813       96.57315
H         62.69968       29.53136       95.86583
H         62.07447       26.62820       94.96868
H         63.29931       27.73348       94.27172
H         61.49502       29.28262       93.50585
H         60.24831       28.11182       94.10016
H         61.22000       26.33033       92.59881
H         62.48360       27.49122       92.04760
H         60.74198       27.36528       90.47298
H         59.55597       27.71715       91.61852
H         60.70474       28.91173       91.18508
N         62.03441       27.95881       99.39452
C         62.03866       26.49384       99.36636
C         62.79899       25.95770       98.16115
O         62.18714       25.37968       97.27754
C         60.62337       25.89238       99.54322
C         60.03182       26.16802      100.90357
O         60.58496       26.91135      101.69859
O         58.91848       25.51617      101.28522
H         62.41641       28.38225      100.25543
H         62.58197       26.11667      100.26137
H         60.73824       24.78969       99.50643
H         59.91665       26.20426       98.74932
N         64.14922       26.09347       98.03164
C         65.01100       26.58631       99.09565
C         66.48004       26.61548       98.69761
O         66.77771       26.53033       97.51261
H         64.57088       25.74646       97.15611
H         64.89389       25.86680       99.93235
H         64.71063       27.60046       99.43318
N         67.49224       26.67209       99.61236
C         67.30303       26.67087      101.06241
C         67.61973       25.29188      101.61815
O         68.06558       24.42420      100.88164
C         68.12827       27.78448      101.74978
C         69.62255       27.60466      101.64255
O         70.18306       27.65032      100.55972
O         70.35631       27.42362      102.75737
H         68.45323       26.60319       99.24961
H         66.24242       26.87277      101.30811
H         67.86480       27.79789      102.82966
H         67.84738       28.77423      101.33052
N         67.35110       25.00986      102.92363
C         67.54353       23.69666      103.51481
C         66.69791       22.65553      102.82116
O         67.22966       21.63646      102.40253
H         66.95784       25.74862      103.52416
H         67.22577       23.74123      104.57883
H         68.61847       23.41364      103.48638
N         65.36579       22.87125      102.64007
C         64.47048       21.92805      101.98151
C         64.07669       22.47131      100.62080
O         63.64073       23.60876      100.51878
C         63.24764       21.58120      102.87266
C         62.37526       22.77476      103.28592
O         63.66276       20.87559      104.01599
H         64.97659       23.77519      102.94783
H         64.98742       20.95850      101.80711
H         62.60036       20.89272      102.28509
H         64.23546       21.47983      104.55644
H         62.94748       23.48058      103.92128
H         61.97615       23.31082      102.40137
H         61.51393       22.40789      103.88090
N         64.21230       21.67794       99.52109
C         63.93185       22.09917       98.15486
C         62.64912       21.42951       97.69116
O         62.65676       20.64831       96.75062
C         65.17523       21.84256       97.23461
C         65.64227       20.35419       97.21493
C         66.33022       22.76766       97.66418
C         66.70906       20.05947       96.15831
H         64.50204       20.70011       99.66420
H         63.71646       23.18867       98.10804
H         64.87687       22.13518       96.20284
H         64.79331       19.68501       96.98159
H         66.04283       20.05540       98.20610
H         65.99776       23.82446       97.65436
H         66.67925       22.51659       98.68861
H         67.18854       22.69797       96.96701
H         67.64769       20.61402       96.35378
H         66.95151       18.97539       96.17659
H         66.32859       20.31672       95.14702
N         61.47490       21.74845       98.30922
C         60.19319       21.13197       97.96952
C         59.26993       22.06925       97.20216
O         58.27532       21.59087       96.67639
C         59.50386       20.58465       99.24427
C         59.12745       21.69313      100.24964
O         60.35782       19.65848       99.86383
H         61.50073       22.47600       99.03753
H         60.37511       20.27781       97.28086
H         58.56927       20.06922       98.92245
H         59.80259       19.13418      100.49828
H         58.59539       21.24961      101.11688
H         60.02251       22.21630      100.64410
H         58.45348       22.44135       99.78188
N         59.53509       23.40336       97.08706
C         58.75470       24.37038       96.31678
C         57.30170       24.46220       96.79356
O         56.86849       23.64704       97.59592
C         58.84036       24.04623       94.79569
C         60.28856       23.82993       94.33441
O         58.28858       25.10148       94.05129
H         60.36244       23.77762       97.55768
H         59.23134       25.36195       96.47675
H         58.27119       23.10838       94.60055
H         58.07588       24.74357       93.14972
H         60.75173       22.96822       94.85924
H         60.30947       23.61033       93.24575
H         60.89478       24.73456       94.52722
N         56.48135       25.44279       96.32010
C         55.03929       25.47673       96.54660
C         54.60718       26.63969       97.44098
O         53.41278       26.78559       97.65916
C         54.34894       25.51103       95.16087
C         54.74260       24.27806       94.31831
C         54.19715       24.33702       92.88763
C         54.67504       23.11518       92.08376
N         54.21074       23.17532       90.69867
H         56.87355       26.17154       95.70808
H         54.69850       24.55624       97.06999
H         54.66222       26.43710       94.62882
H         53.24369       25.53044       95.27764
H         54.38249       23.35569       94.82440
H         55.84594       24.22046       94.23934
H         54.57452       25.26006       92.39472
H         53.08650       24.36637       92.90614
H         54.29557       22.18379       92.56009
H         55.78830       23.07874       92.08757
H         54.59245       24.02871       90.22940
H         54.55340       22.32974       90.18709
H         53.16583       23.19034       90.66846
N         55.51214       27.45778       98.05722
C         55.13573       28.50740       99.00688
C         54.30156       29.58801       98.34427
O         54.74720       30.19634       97.38315
C         56.39447       29.15912       99.63644
C         57.22923       28.22715      100.52824
C         56.56287       27.93433      101.84579
O         55.51651       27.30990      101.89767
O         57.13444       28.36183      102.98821
H         56.51278       27.29782       97.89015
H         54.53647       28.05975       99.82349
H         56.11127       30.04618      100.24552
H         57.05180       29.51558       98.82507
H         58.18434       28.75087      100.75140
H         57.47901       27.28617       99.99676
N         53.07821       29.91201       98.84448
C         52.28458       30.98593       98.28865
H         51.33857       31.09252       98.86025
H         52.84648       31.94293       98.35787
H         52.04421       30.77368       97.22604
H         52.70722       29.40418       99.66154
Ca        58.28681       25.68203      103.44809
O         55.66330       24.35478      102.68255
H         55.60840       24.03281      103.61731
H         56.32320       23.75563      102.25110
O         58.83771       22.76270      104.32571
H         59.30407       22.71578      105.19802
H         57.87590       22.78016      104.55940
O         61.48785       25.80204      104.41315
H         61.97941       26.41759      105.01239
H         62.04687       25.75597      103.59726
O         56.14698       26.44581      105.42122
H         55.48471       27.11002      105.73742
H         56.71129       26.25808      106.21296

Ca 1.0



