%chk=apoCaM-CA-Ng.loop3.water5.frame487.chk
%nprocshared=20
%mem=10GB
%nosave
#b3lyp/svp scf=(tight,noincore,xqc) Test 
#IOP(5/87=12) Density=Current Pop=(MK,readradii) iop(6/33=2) iop(6/42=6)

apoCaM-CA-Ng.loop3.water5.frame487 

   0  1 
C         38.68182       52.84070      107.37754
C         37.39218       52.61234      108.10827
O         37.42449       52.20218      109.25947
H         39.55102       52.59253      108.02406
H         38.71639       52.20210      106.47053
H         38.75513       53.90727      107.07791
N         36.20630       52.87389      107.48922
C         34.90923       52.70109      108.12903
C         34.22800       54.05456      108.23801
O         33.98635       54.69851      107.22768
C         34.06711       51.68937      107.33356
C         32.71704       51.47367      107.95966
O         32.62144       51.01819      109.22377
O         31.70189       51.70788      107.32358
H         36.22541       53.22691      106.51976
H         35.03812       52.28310      109.15162
H         34.60081       50.71392      107.31238
H         33.94486       52.04035      106.28552
N         33.91578       54.54454      109.47026
C         33.32627       55.85202      109.72618
C         34.29210       56.64939      110.56922
O         34.70653       56.19278      111.62449
C         32.00223       55.69889      110.47737
C         30.86968       55.24548      109.54393
C         29.57025       54.99103      110.32608
C         29.59133       53.68558      111.14617
N         29.55330       52.50253      110.28171
H         34.13677       53.96624      110.29479
H         33.13137       56.40916      108.78197
H         31.69514       56.68759      110.88885
H         32.16282       55.00839      111.33004
H         31.15522       54.35877      108.94550
H         30.69112       56.07738      108.82616
H         28.71343       54.93763      109.62155
H         29.39152       55.85771      111.00068
H         28.68822       53.66845      111.79312
H         30.47579       53.64157      111.81587
H         29.54473       51.64243      110.87472
H         28.68337       52.51672      109.70041
H         30.38669       52.45772      109.65795
N         34.70562       57.86277      110.12726
C         35.73191       58.65755      110.77272
C         35.18571       60.03836      111.11743
O         34.56782       60.66910      110.27180
C         36.87656       58.74038      109.77485
C         37.98283       59.60302      110.24979
O         38.18518       60.62208      109.64027
O         38.78866       59.32880      111.28636
H         34.32072       58.22321      109.23945
H         36.12848       58.17112      111.69021
H         36.47955       59.17518      108.82598
H         37.27741       57.73195      109.53703
N         35.40662       60.57670      112.35309
C         34.88318       61.86675      112.78555
C         35.38068       63.09006      112.02363
O         34.88292       64.16625      112.32450
H         35.93704       60.02667      113.04409
H         35.13134       62.01592      113.85859
H         33.77497       61.83134      112.69804
N         36.29739       63.02979      111.01142
C         36.57706       64.18022      110.15095
C         37.04669       63.74253      108.76525
O         37.98660       64.30815      108.22972
C         37.52067       65.21529      110.82107
C         38.92753       64.71871      111.08800
N         39.86327       65.57379      111.56360
O         39.23520       63.55802      110.86224
H         36.68994       62.12077      110.75530
H         35.60261       64.67694      109.94638
H         37.08246       65.56918      111.77793
H         37.59630       66.09242      110.14185
H         39.62974       66.56050      111.74765
H         40.82990       65.25600      111.73062
N         36.37072       62.76016      108.10685
C         36.61948       62.31874      106.73972
C         37.93768       61.61123      106.44876
O         38.03755       61.07852      105.35268
H         35.56711       62.32810      108.58543
H         36.49597       63.17122      106.03977
H         35.82482       61.57650      106.50120
N         38.98845       61.55970      107.31953
C         40.22889       60.84015      107.02913
C         41.33249       61.04501      108.12557
O         41.05773       61.99756      109.11759
C         40.00295       59.30974      106.87492
C         41.27453       58.58689      106.47099
C         41.89499       58.87044      105.24164
C         41.85823       57.63263      107.32261
C         43.08261       58.22586      104.88040
C         43.04991       56.99347      106.96287
C         43.66796       57.29129      105.74019
O         44.82154       56.69079      105.38298
H         38.92982       62.10468      108.17851
H         40.57895       61.25346      106.06014
H         39.23307       59.08629      106.11012
H         39.62843       58.91431      107.84496
H         41.46242       59.59469      104.56402
H         41.39773       57.38831      108.26968
H         43.55243       58.45855      103.93318
H         43.49371       56.27035      107.63618
H         45.26753       56.04891      105.95396
N         42.67012       61.17996      107.51105
C         43.73480       61.90800      108.23268
C         43.26217       63.30708      108.60953
O         43.29480       63.62149      109.79146
C         45.01049       61.85956      107.33883
C         45.46862       60.37570      107.23069
C         46.14494       62.74521      107.87644
C         46.49990       60.11336      106.13763
H         42.58587       61.60685      106.56120
H         43.97470       61.37664      109.18178
H         44.74100       62.24195      106.32849
H         44.60411       59.72629      106.98260
H         45.86413       60.03720      108.21451
H         45.82026       63.80209      107.91683
H         46.45344       62.42409      108.89219
H         47.02239       62.71374      107.19943
H         47.43292       60.68557      106.30051
H         46.75267       59.03095      106.13433
H         46.06747       60.37181      105.14750
N         42.67852       64.14305      107.70211
C         41.98445       65.35550      108.13429
C         42.92499       66.35075      108.78515
O         42.47937       67.12910      109.61621
C         41.22023       66.02335      106.97216
O         40.39146       65.12285      106.27825
H         42.63223       63.86146      106.71200
H         41.22610       65.04294      108.89016
H         41.95574       66.42741      106.24653
H         40.60399       66.86570      107.35818
H         40.01903       64.47274      106.92533
N         44.24706       66.36852      108.45137
C         45.25162       67.24212      109.03901
C         45.41931       66.95721      110.52433
O         45.33182       67.86204      111.34330
C         44.95220       68.71272      108.71572
H         44.57923       65.71529      107.72882
H         46.22497       66.99824      108.55803
H         44.00604       69.05263      109.18378
H         45.77858       69.35817      109.07945
H         44.86740       68.83981      107.61481
N         45.67388       65.68137      110.92896
C         45.84784       65.27994      112.32056
C         46.79820       64.09849      112.39716
O         46.59416       63.13495      111.67222
C         44.49755       64.88944      112.92399
H         45.67883       64.94444      110.20731
H         46.23776       66.12487      112.93132
H         44.04279       64.04506      112.37105
H         44.63397       64.58955      113.98669
H         43.80118       65.75406      112.89582
N         47.83726       64.08833      113.28420
C         48.77939       62.97772      113.43511
C         49.70630       62.83930      112.23497
O         50.32181       61.79209      112.08180
C         48.06480       61.63784      113.77344
C         47.17960       61.71176      115.02699
C         47.97365       62.03174      116.26131
O         47.69127       63.13599      116.97777
O         48.87262       61.28952      116.62444
H         47.95543       64.89631      113.91416
H         49.45213       63.20574      114.29073
H         48.82567       60.84187      113.93100
H         47.43667       61.30412      112.92346
H         46.68573       60.72703      115.17475
H         46.38366       62.47280      114.87897
N         49.94536       63.88810      111.39769
C         50.89039       63.79205      110.30580
H         51.89786       63.53266      110.69847
H         50.56241       63.01336      109.58579
H         50.96075       64.76613      109.77715
H         49.47628       64.79287      111.54879
Ca        40.54429       60.69563      110.93285
O         43.43760       60.94741      111.93137
H         43.29665       61.90672      111.73926
H         44.42081       60.84471      111.97233
O         42.27706       58.53518      110.34456
H         43.24419       58.57046      110.54786
H         41.89861       57.90750      111.00976
O         38.46558       61.39576      113.52246
H         38.10476       60.74800      114.17870
H         38.56616       62.23719      114.03403
O         41.25827       59.25354      113.63233
H         41.03781       59.28596      114.59682
H         41.53077       58.31540      113.47163
O         41.33484       62.91459      113.45434
H         41.12003       63.83192      113.75776
H         42.17176       62.68682      113.93163

Ca 1.0



