%chk=apoCaM-CA-Ng.loop4.water5.frame712.chk
%nprocshared=20
%mem=10GB
%nosave
#b3lyp/svp scf=(tight,noincore,xqc) Test 
#IOP(5/87=12) Density=Current Pop=(MK,readradii) iop(6/33=2) iop(6/42=6)

apoCaM-CA-Ng.loop4.water5.frame712 

   -3  1 
C         91.49290      -17.70430       10.55335
C         92.09848      -18.87751       11.26559
O         91.64330      -19.99219       11.05871
H         90.41925      -17.62195       10.82179
H         91.99842      -16.75542       10.83289
H         91.58825      -17.84496        9.45665
N         93.14478      -18.69625       12.11996
C         93.80193      -19.76161       12.87020
C         94.39135      -20.79345       11.92609
O         94.16044      -21.98369       12.09966
C         92.83290      -20.38507       13.90251
C         92.23503      -19.32757       14.78500
O         90.90866      -19.10307       14.74512
O         92.94477      -18.64991       15.51084
H         93.51372      -17.74175       12.25082
H         94.64995      -19.30417       13.42764
H         93.36157      -21.13516       14.53007
H         92.00919      -20.90917       13.37191
N         95.14266      -20.38888       10.86234
C         95.69029      -21.33878        9.89586
C         96.93859      -22.00297       10.47093
O         97.46327      -21.49058       11.45075
C         95.95960      -20.66095        8.51189
C         97.07298      -19.58075        8.57768
C         94.63691      -20.10963        7.94653
C         97.42370      -18.98843        7.21106
H         95.25448      -19.37722       10.70897
H         94.91021      -22.11512        9.73318
H         96.30587      -21.43733        7.80281
H         97.99932      -20.04886        8.97371
H         96.79002      -18.74894        9.25397
H         93.88821      -20.92703        7.90035
H         94.23262      -19.29106        8.57844
H         94.76115      -19.73101        6.91285
H         96.56911      -18.42613        6.78343
H         98.26805      -18.27653        7.32398
H         97.72823      -19.79221        6.50755
N         97.49984      -23.14120        9.96590
C         96.95465      -23.96152        8.89118
C         96.51715      -25.30886        9.44383
O         95.35503      -25.65276        9.27099
C         97.90172      -24.04843        7.66445
C         99.32660      -24.52424        7.82860
O         99.86715      -24.80948        9.02401
O        100.02965      -24.61139        6.83482
H         98.35133      -23.48205       10.43533
H         96.03082      -23.51484        8.47698
H         97.97191      -23.03214        7.22103
H         97.40625      -24.70485        6.91516
N         97.35378      -26.10438       10.16788
C         96.93480      -27.36801       10.73643
C         96.61638      -28.36989        9.65835
O         97.49733      -28.70581        8.87904
H         98.30748      -25.79879       10.38041
H         96.06436      -27.19621       11.40693
H         97.75712      -27.78558       11.35734
N         95.37387      -28.92076        9.58213
C         95.03725      -29.98724        8.64530
C         95.12982      -29.60099        7.17292
O         95.04916      -30.50776        6.35605
C         93.64301      -30.58487        8.96165
C         92.49213      -29.62624        8.76445
O         91.59755      -29.90333        7.98316
O         92.41168      -28.48361        9.47219
H         94.67800      -28.62810       10.28234
H         95.77888      -30.79982        8.81524
H         93.63200      -30.93260       10.01658
H         93.48291      -31.47707        8.31572
N         95.29122      -28.31571        6.73328
C         95.36890      -28.00350        5.31003
C         94.08689      -28.32646        4.55462
O         94.11186      -28.31538        3.33290
H         95.36955      -27.54038        7.40504
H         96.20824      -28.58949        4.87725
H         95.59659      -26.92525        5.16041
N         92.92046      -28.57934        5.21562
C         91.64191      -28.89959        4.59222
C         91.18416      -27.81600        3.63117
O         90.67918      -28.12691        2.56053
C         91.63457      -30.31813        3.97279
C         91.84662      -31.39952        5.04482
C         91.75199      -32.78867        4.46971
N         92.78668      -33.65523        4.57345
O         90.71911      -33.14444        3.92168
H         92.90679      -28.49860        6.23974
H         90.87857      -28.90084        5.40257
H         92.41101      -30.39992        3.18117
H         90.63939      -30.49755        3.50944
H         91.06023      -31.30296        5.82287
H         92.83138      -31.25476        5.52809
H         93.66310      -33.38249        5.04156
H         92.70796      -34.60922        4.19067
N         91.30195      -26.50497        3.98365
C         90.72781      -25.40727        3.20765
C         89.81332      -24.52651        4.05396
O         89.04254      -23.78239        3.46215
C         91.82004      -24.53959        2.52662
C         92.81706      -23.94636        3.53624
C         92.57225      -25.34043        1.45722
H         91.82603      -26.29101        4.84176
H         90.08297      -25.82416        2.40124
H         91.31347      -23.69800        2.00179
H         93.39228      -24.74657        4.04736
H         93.53599      -23.28067        3.01401
H         92.29267      -23.34472        4.30349
H         93.11306      -26.19763        1.90779
H         91.85917      -25.72412        0.69624
H         93.30604      -24.68685        0.93873
N         89.87472      -24.49561        5.42113
C         89.04995      -23.62197        6.24409
C         88.23322      -24.43895        7.22745
O         88.34169      -25.65822        7.26186
C         89.94262      -22.59445        6.97975
C         90.61725      -21.60224        6.05718
N         91.41085      -20.63932        6.57599
O         90.43730      -21.64115        4.84913
H         90.54994      -25.07812        5.92996
H         88.31820      -23.06025        5.62211
H         90.71178      -23.13347        7.57498
H         89.32839      -21.99054        7.67843
H         91.55987      -20.57642        7.59318
H         91.86975      -19.95104        5.96065
N         87.32415      -23.80278        8.01377
C         86.37163      -24.49851        8.87705
C         85.25267      -23.56006        9.30737
O         85.32353      -22.37321        9.02280
C         87.05249      -25.19493       10.08474
C         87.53496      -24.26146       11.17777
C         88.51382      -23.28164       10.93686
C         87.00565      -24.38821       12.47673
C         88.94468      -22.44401       11.97285
C         87.44199      -23.55528       13.50870
C         88.40988      -22.58104       13.26230
O         88.81715      -21.78621       14.27100
H         87.25268      -22.78295        7.89303
H         85.89177      -25.28196        8.24897
H         87.90073      -25.82132        9.73970
H         86.30858      -25.89575       10.52197
H         88.94823      -23.16311        9.95482
H         86.25624      -25.13771       12.69810
H         89.69637      -21.69199       11.77448
H         87.02769      -23.66882       14.50296
H         89.48169      -21.09762       14.14144
N         84.14574      -24.03173        9.94098
C         83.01641      -23.17084       10.26212
C         82.71379      -23.24964       11.74714
O         81.93553      -24.11228       12.13115
C         81.81715      -23.57703        9.37934
C         80.61432      -22.63689        9.55628
C         79.49388      -23.01932        8.63318
O         79.65796      -22.99836        7.42333
O         78.29628      -23.37406        9.13600
H         84.07208      -25.04043       10.14569
H         83.21891      -22.12359        9.98340
H         81.51810      -24.62690        9.59386
H         82.14580      -23.52503        8.31661
H         80.91683      -21.59064        9.33214
H         80.25344      -22.68100       10.60551
N         83.28776      -22.43518       12.68309
C         84.27841      -21.38449       12.44095
C         83.71344      -20.25460       11.59759
O         82.67090      -19.71367       11.93967
C         84.75331      -20.81213       13.79587
C         85.86898      -19.76296       13.64365
C         86.33291      -19.22664       14.97033
O         85.78393      -19.64963       16.12685
O         87.21738      -18.38756       15.00096
H         83.01065      -22.60675       13.66343
H         85.16775      -21.83573       11.94716
H         85.14554      -21.65098       14.41268
H         83.88812      -20.35815       14.32951
H         85.50505      -18.90586       13.03822
H         86.73457      -20.22222       13.12095
N         84.39288      -19.82192       10.49734
C         83.94655      -18.73994        9.64494
H         82.97742      -18.31203        9.97467
H         84.70925      -17.93260        9.65027
H         83.83257      -19.11555        8.60644
H         85.29147      -20.26310       10.25716
Ca        89.95929      -17.43449       15.92267
O         89.27572      -20.09515       17.34410
H         88.30529      -19.93774       17.23088
H         89.42316      -20.03249       18.32097
O         87.85791      -15.26646       16.34406
H         88.38982      -14.97677       17.12754
H         86.94301      -15.39787       16.69885
O         90.52956      -16.68122       18.73113
H         90.78286      -17.63725       18.78185
H         91.37451      -16.21211       18.51555
O         91.54060      -14.86097       15.54781
H         91.07060      -14.05018       15.22846
H         91.79995      -15.34025       14.72084
O         88.69292      -16.32007       13.12260
H         87.74832      -16.31203       12.82534
H         89.18353      -15.84521       12.40562

Ca 1.0



