%chk=apoCaM-CA-Ng.loop4.water3.frame86.chk
%nprocshared=20
%mem=10GB
%nosave
#b3lyp/svp scf=(tight,noincore,xqc) Test 
#IOP(5/87=12) Density=Current Pop=(MK,readradii) iop(6/33=2) iop(6/42=6)

apoCaM-CA-Ng.loop4.water3.frame86 

   -3  1 
C         47.84636       64.06476       84.52779
C         47.42929       65.11192       83.54151
O         46.65033       65.98204       83.89900
H         48.94360       64.12474       84.68420
H         47.33875       64.21935       85.50455
H         47.58238       63.05874       84.14133
N         47.94072       65.09892       82.27635
C         47.63486       66.09107       81.25259
C         48.05538       67.47746       81.70874
O         47.22210       68.34947       81.87725
C         46.21658       65.91932       80.63683
C         45.03026       65.92526       81.55664
O         44.68707       67.03396       82.22531
O         44.32935       64.92979       81.65267
H         48.62261       64.36423       82.03417
H         48.28572       65.89159       80.37125
H         46.21797       64.93373       80.12036
H         46.06280       66.69582       79.85530
N         49.39468       67.71386       81.87435
C         50.08185       68.97293       82.18130
C         49.96356       69.97896       81.03808
O         50.98253       70.23606       80.40978
C         49.75833       69.54588       83.58531
C         50.57603       70.83429       83.90088
C         50.01868       68.48023       84.66872
C         52.10459       70.67274       83.88560
H         50.02062       66.90659       81.72516
H         51.16116       68.70247       82.22084
H         48.68375       69.82189       83.62357
H         50.28457       71.19872       84.90924
H         50.30859       71.62834       83.17141
H         49.83691       68.90022       85.68010
H         49.34737       67.60777       84.52621
H         51.06530       68.11373       84.63622
H         52.58035       71.64301       84.14029
H         52.44148       69.92632       84.63284
H         52.47390       70.37861       82.88256
N         48.78595       70.56823       80.67436
C         48.68815       71.40722       79.48912
C         49.25159       72.80181       79.73577
O         50.20373       73.14042       79.04665
C         47.26202       71.39134       78.89459
C         47.19461       72.17120       77.60878
O         47.89138       71.85251       76.65772
O         46.36307       73.22439       77.49978
H         47.92543       70.36729       81.18999
H         49.29725       70.92231       78.68962
H         46.50911       71.77648       79.59770
H         46.97542       70.33923       78.67874
N         48.77213       73.69693       80.65303
C         47.67943       73.45802       81.59587
C         47.37008       74.67981       82.45721
O         47.99556       75.70569       82.24348
H         49.25879       74.60548       80.67594
H         47.98476       72.61955       82.25110
H         46.76172       73.21946       81.05329
N         46.43692       74.70338       83.46418
C         45.49181       73.65539       83.84194
C         46.21840       72.34854       84.12375
O         46.01851       71.39669       83.38304
C         44.37550       73.55039       82.76966
C         43.13834       72.83335       83.24705
O         42.18273       72.72224       82.49635
O         43.04110       72.36704       84.50553
H         46.37091       75.57352       84.01632
H         44.96732       73.99438       84.76277
H         44.74678       73.06326       81.84845
H         44.04437       74.57837       82.50737
N         47.13792       72.21062       85.12195
C         47.39589       73.17012       86.18078
C         48.75884       73.80164       86.07445
O         49.41195       73.69185       85.04673
H         47.67022       71.33086       85.17118
H         47.31463       72.61952       87.14348
H         46.65394       73.99076       86.21253
N         49.23792       74.50835       87.13554
C         50.48201       75.27071       87.12153
C         51.56347       74.61776       87.96237
O         52.66331       75.15522       87.98578
C         50.18543       76.70287       87.63830
C         49.19674       77.44738       86.73104
C         49.84834       77.78268       85.41787
N         49.47403       77.14594       84.29186
O         50.73822       78.61887       85.37669
H         48.68146       74.51707       88.00534
H         50.89827       75.31867       86.09123
H         51.11710       77.30374       87.72487
H         49.74304       76.61921       88.65544
H         48.85583       78.39330       87.20252
H         48.29206       76.81641       86.58489
H         48.75721       76.41306       84.34575
H         49.92467       77.35665       83.38880
N         51.35387       73.45860       88.65391
C         52.40003       72.79004       89.42550
C         52.10900       72.82141       90.91837
O         52.95834       72.38292       91.68049
C         52.62089       71.33897       88.91610
C         53.00174       71.33594       87.42853
C         51.39537       70.44028       89.14304
H         50.42024       73.02657       88.63945
H         53.36414       73.33201       89.30355
H         53.46977       70.89775       89.48400
H         52.17898       71.75150       86.80753
H         53.91539       71.94522       87.26396
H         53.20829       70.29928       87.08811
H         51.61080       69.40418       88.80707
H         51.13039       70.40085       90.22049
H         50.52256       70.81012       88.57428
N         50.95366       73.35642       91.41149
C         50.68967       73.52807       92.83127
C         49.43983       72.77551       93.24713
O         49.50422       72.01781       94.20588
C         50.51156       75.03084       93.12676
C         51.70803       75.83390       92.67634
N         51.57499       76.79131       91.72727
O         52.80609       75.61379       93.16526
H         50.24300       73.72104       90.76534
H         51.54379       73.16831       93.44911
H         50.35990       75.18519       94.21782
H         49.60772       75.40284       92.60021
H         50.65862       76.98893       91.29871
H         52.39161       77.33539       91.41245
N         48.25374       72.97424       92.59925
C         46.97566       72.45602       93.07808
C         46.30851       71.53020       92.07974
O         46.54077       71.65320       90.88531
C         46.03985       73.66071       93.30060
C         46.61374       74.63981       94.29130
C         47.06988       75.89924       93.86498
C         46.69969       74.30038       95.64919
C         47.61050       76.80145       94.78469
C         47.22721       75.20958       96.56985
C         47.68701       76.46319       96.13951
O         48.20097       77.34822       97.01664
H         48.23443       73.58692       91.77002
H         47.10760       71.90010       94.03234
H         45.03415       73.34118       93.64678
H         45.90565       74.16412       92.31535
H         47.02211       76.17893       92.81940
H         46.34714       73.33646       95.99413
H         47.96912       77.76453       94.44318
H         47.27761       74.93811       97.61628
H         48.26309       77.15614       97.96310
N         45.38135       70.62694       92.52562
C         44.51920       69.80151       91.67827
C         45.25222       68.79217       90.80229
O         44.57529       68.10398       90.05016
C         43.57915       70.69319       90.83218
C         42.67852       71.56453       91.72304
C         41.72964       72.38675       90.90118
O         40.91649       71.84281       90.17065
O         41.75810       73.73058       90.98145
H         45.22354       70.55919       93.54309
H         43.86240       69.19367       92.34100
H         42.91975       70.03947       90.21946
H         44.16271       71.33421       90.13792
H         43.30259       72.24257       92.34132
H         42.08502       70.91582       92.40395
N         46.60229       68.60681       90.85347
C         47.30854       67.66153       89.99398
C         47.96057       66.53903       90.78299
O         48.58239       65.69134       90.15614
C         48.34976       68.43469       89.15963
C         47.72700       69.46818       88.20262
C         46.96281       68.82545       87.07907
O         47.35438       68.96253       85.93595
O         45.84590       68.11119       87.30602
H         47.17071       69.15004       91.51758
H         46.61448       67.13943       89.30963
H         48.96783       67.73634       88.55319
H         49.02712       68.96312       89.86447
H         48.55477       70.05405       87.75226
H         47.07302       70.18095       88.74556
N         47.82922       66.42492       92.13682
C         48.38567       65.32171       92.89464
H         49.09087       65.71387       93.65523
H         47.56191       64.78186       93.40749
H         48.92691       64.59287       92.25487
H         47.29578       67.12501       92.67023
Ca        45.29518       68.76413       84.21899
O         43.62255       69.61411       82.06081
H         43.97566       69.65696       81.13728
H         42.83810       70.21459       82.06213
O         44.07285       70.43153       86.37830
H         43.84334       69.78379       87.08944
H         43.49043       70.17149       85.62149
O         43.05218       67.28024       85.36389
H         42.26323       67.70912       85.78049
H         42.67700       66.69002       84.66321

Ca 1.0



