%chk=apoCaM-CA-Ng.loop2.water4.frame598.chk
%nprocshared=20
%mem=10GB
%nosave
#b3lyp/svp scf=(tight,noincore,xqc) Test 
#IOP(5/87=12) Density=Current Pop=(MK,readradii) iop(6/33=2) iop(6/42=6)

apoCaM-CA-Ng.loop2.water4.frame598 

   -2  1 
C         37.60255       95.39090       80.40905
C         36.31872       96.16699       80.38297
O         35.27548       95.56728       80.16574
H         38.47208       96.04939       80.61567
H         37.54970       94.61589       81.20244
H         37.75760       94.89618       79.42734
N         36.31475       97.51450       80.59233
C         35.09066       98.30674       80.58234
C         34.17846       97.84716       81.70645
O         34.56463       97.93701       82.86292
C         35.42660       99.81019       80.72499
C         34.23330      100.73078       80.63999
O         33.10354      100.29914       80.47008
O         34.42131      102.05977       80.74449
H         37.21632       97.99067       80.75238
H         34.59603       98.16766       79.59463
H         36.12338      100.09504       79.90666
H         35.94138       99.98465       81.69474
N         32.94403       97.34171       81.42738
C         32.01981       96.87177       82.45879
C         32.57490       95.63232       83.16879
O         33.51324       95.04459       82.64841
C         30.67781       96.53702       81.78367
H         32.64726       97.31104       80.43924
H         31.86949       97.70304       83.17699
H         30.29142       97.43778       81.26143
H         30.82104       95.72822       81.03494
H         29.89322       96.20894       82.48177
N         32.06774       95.12446       84.33676
C         31.01795       95.73884       85.15147
C         31.47659       97.05201       85.76377
O         32.64220       97.40664       85.64357
C         30.53714       94.76163       86.25712
C         31.57313       94.37132       87.28285
O         32.71216       94.80664       87.23608
O         31.23048       93.52517       88.27260
H         32.47892       94.23867       84.67236
H         30.13418       95.92975       84.52543
H         30.16825       93.83473       85.76747
H         29.67890       95.21254       86.79878
N         30.59756       97.82298       86.46332
C         30.98758       99.05872       87.11611
C         31.42297      100.12941       86.13972
O         31.35858       99.91106       84.93800
H         29.62064       97.51102       86.56703
H         31.81551       98.83836       87.81684
H         30.12423       99.44998       87.69373
N         31.88404      101.34041       86.56051
C         32.02489      101.74611       87.95666
C         33.47888      102.04853       88.30700
O         33.72102      102.49863       89.41832
C         31.13244      102.98107       88.20413
C         29.67242      102.66942       87.97451
N         29.03282      101.74781       88.73363
O         29.05907      103.26216       87.09971
H         32.15237      102.02969       85.83900
H         31.70306      100.95344       88.65937
H         31.45337      103.80486       87.52787
H         31.24292      103.33333       89.25250
H         29.52710      101.24495       89.48490
H         28.03665      101.53668       88.57383
N         34.50439      101.82679       87.43011
C         35.88228      102.19598       87.71485
C         36.55323      101.45253       88.85855
O         37.66791      101.83833       89.17974
H         34.31155      101.44343       86.49462
H         35.90149      103.28372       87.94117
H         36.50108      102.03134       86.80539
N         35.99190      100.38607       89.50488
C         36.65087       99.70789       90.62946
C         37.12370       98.31688       90.23607
O         36.89081       97.90045       89.11219
C         35.73166       99.71793       91.87386
C         35.52535      101.14480       92.39040
O         34.48258       99.14900       91.56631
H         35.07978      100.02673       89.18782
H         37.58889      100.23496       90.90626
H         36.22730       99.16214       92.70407
H         34.36851       98.34055       92.13003
H         34.88792      101.13272       93.29939
H         36.50579      101.59496       92.65974
H         35.04019      101.78285       91.62413
N         37.87062       97.56958       91.10659
C         38.54957       96.33083       90.73167
C         37.85708       95.12239       91.34223
O         37.66689       95.05047       92.54717
C         40.05811       96.36555       91.13849
C         40.75506       95.02216       90.76020
C         40.76936       97.55804       90.46961
C         42.21871       94.92104       91.19121
H         38.02986       97.92520       92.06079
H         38.53406       96.21757       89.62558
H         40.12126       96.49548       92.24176
H         40.68904       94.85525       89.66419
H         40.23431       94.18083       91.26418
H         40.27662       98.51474       90.73890
H         41.82073       97.63798       90.81294
H         40.76159       97.44904       89.36427
H         42.85192       95.66081       90.66275
H         42.30743       95.06610       92.28857
H         42.60436       93.91022       90.93677
N         37.55096       94.08483       90.51878
C         36.98777       92.80055       90.90049
C         38.01640       91.70280       90.65403
O         38.24786       90.92238       91.56573
C         35.72804       92.54518       90.05616
C         34.59138       93.43838       90.46866
O         34.02968       93.25022       91.53594
O         34.18811       94.45302       89.68268
H         37.77692       94.19635       89.52741
H         36.71275       92.77045       91.97875
H         35.37946       91.49529       90.16757
H         35.97414       92.69976       88.98331
N         38.66937       91.58007       89.45629
C         39.65530       90.54077       89.14911
C         40.10636       90.65573       87.68453
O         41.29366       90.80823       87.44717
C         40.86143       90.63235       90.14060
C         41.96279       89.61637       89.90904
C         41.68401       88.23827       89.87844
C         43.29372       90.04664       89.74362
C         42.71444       87.31289       89.67728
C         44.32116       89.11705       89.55430
C         44.03157       87.75144       89.51862
H         38.45245       92.26276       88.72218
H         39.17312       89.54782       89.26633
H         40.51169       90.46445       91.17530
H         41.28137       91.66209       90.09782
H         40.67214       87.87771       90.00539
H         43.54093       91.10076       89.77290
H         42.49282       86.25389       89.64829
H         45.34313       89.45544       89.43790
H         44.82823       87.03324       89.37071
N         39.22056       90.57701       86.63329
C         39.61227       90.64414       85.22999
C         40.59588       91.76593       84.94529
O         41.69832       91.45328       84.51946
C         38.27681       90.79258       84.48557
C         37.36366       89.95370       85.35414
C         37.79400       90.36537       86.76192
H         40.08474       89.66748       84.97444
H         37.89578       91.83347       84.56073
H         38.31048       90.50942       83.41207
H         36.27594       90.06185       85.15646
H         37.65066       88.88849       85.19914
H         37.31494       91.31761       87.06446
H         37.53222       89.55076       87.47053
N         40.27452       93.07488       85.19630
C         41.16806       94.23919       85.12579
C         42.64168       93.86717       85.05538
O         43.29150       94.19372       84.07216
C         40.99397       95.19708       86.34282
C         39.70270       96.04525       86.35599
C         38.45295       95.37469       86.83955
O         37.30793       96.07721       86.87844
O         38.47323       94.24607       87.29035
H         39.29783       93.26169       85.42627
H         40.90546       94.82329       84.21660
H         41.80476       95.95435       86.25182
H         41.14534       94.67793       87.31423
H         39.54256       96.48457       85.34972
H         39.86036       96.88428       87.06883
N         43.23581       93.19260       86.08052
C         44.63375       92.82610       86.05693
H         45.26262       93.73927       85.99784
H         44.89433       92.27202       86.98423
H         44.83960       92.17271       85.18283
H         42.67842       92.92424       86.90454
Ca        35.64231       95.37280       88.22621
O         35.78390       98.56840       86.59961
H         35.10563       99.19886       86.25359
H         36.63519       99.07381       86.57328
O         35.24171       95.55773       85.03114
H         35.80384       95.28015       84.26507
H         35.08295       96.52241       84.88844
O         33.16718       97.21671       89.39347
H         32.34517       97.54192       89.83964
H         33.67412       98.03786       89.17370
O         35.13077       92.88742       86.30432
H         36.04670       93.25954       86.35577
H         34.92448       92.87604       85.33632

Ca 1.0



