%chk=apoCaM-CA-Ng.loop3.water4.frame303.chk
%nprocshared=20
%mem=10GB
%nosave
#b3lyp/svp scf=(tight,noincore,xqc) Test 
#IOP(5/87=12) Density=Current Pop=(MK,readradii) iop(6/33=2) iop(6/42=6)

apoCaM-CA-Ng.loop3.water4.frame303 

   0  1 
C         95.75232       33.16919       33.17415
C         97.10761       33.70856       33.51013
O         97.95850       33.76505       32.63757
H         94.99106       33.95809       33.34723
H         95.70624       32.85312       32.11004
H         95.52954       32.29420       33.81969
N         97.38036       34.11313       34.78183
C         98.65328       34.67185       35.22188
C         99.78838       33.69391       34.94040
O        100.76088       34.07116       34.29881
C         98.87058       36.05279       34.55443
C        100.01520       36.85532       35.12097
O        100.73919       36.40417       36.16396
O        100.27688       37.94670       34.64056
H         96.63865       34.01615       35.49210
H         98.57942       34.83270       36.32045
H         97.95161       36.66586       34.67211
H         99.04128       35.89263       33.47364
N         99.70690       32.39558       35.35797
C        100.74911       31.41285       35.06595
C        100.25105       30.34422       34.11371
O        100.68114       29.20169       34.19647
C        101.33641       30.85115       36.37415
C        102.01548       31.98791       37.14303
C        102.71123       31.51577       38.41868
C        103.46004       32.67149       39.10704
N        102.56813       33.77767       39.46653
H         98.86845       32.08563       35.87302
H        101.58773       31.88663       34.51122
H        102.10017       30.07847       36.13983
H        100.53365       30.38264       36.98851
H        101.24511       32.74392       37.40080
H        102.78020       32.45325       36.48368
H        103.45402       30.72747       38.16377
H        101.96392       31.07925       39.11631
H        104.26490       33.05260       38.43798
H        103.94137       32.27237       40.02574
H        102.26628       34.29738       38.61070
H        101.73099       33.42024       39.98112
H        103.08448       34.44963       40.07741
N         99.41291       30.68572       33.09791
C         99.05934       29.78151       32.01688
C        100.27904       29.60983       31.11077
O        100.96165       30.58970       30.85496
C         97.84871       30.34464       31.23567
C         97.32874       29.34702       30.23632
O         98.02536       29.01729       29.30400
O         96.09989       28.81084       30.32547
H         99.04004       31.64175       33.06851
H         98.71209       28.81407       32.44355
H         98.11859       31.29292       30.71675
H         97.02888       30.56866       31.95197
N        100.59110       28.39850       30.57201
C        101.72010       28.14221       29.67661
C        101.70132       28.98578       28.40928
O        102.71002       29.59606       28.08492
H         99.98045       27.60149       30.79905
H        101.67297       27.07475       29.37331
H        102.67801       28.30150       30.21725
N        100.56589       29.08279       27.66341
C        100.39478       29.88564       26.44326
C        100.75279       31.37008       26.60428
O        100.74217       32.07119       25.60121
C         98.90774       29.80888       25.99224
C         98.44059       28.40223       25.70476
N         98.81569       27.76350       24.57474
O         97.69076       27.84306       26.49022
H         99.77232       28.52928       27.99053
H        101.06317       29.47089       25.65918
H         98.70150       30.43350       25.09586
H         98.29618       30.22525       26.82457
H         99.40668       28.23487       23.87579
H         98.47902       26.80777       24.38223
N        101.04973       31.93189       27.81164
C        101.36107       33.33614       28.00887
C        100.21569       34.18541       27.52872
O        100.43425       35.10124       26.74896
H        101.01350       31.36413       28.65653
H        102.30857       33.60768       27.49168
H        101.51066       33.51353       29.09856
N         98.94973       33.90217       27.94529
C         97.76182       34.62056       27.50139
C         96.74703       33.66326       26.89962
O         96.38770       32.69119       27.54670
C         97.12866       35.34467       28.69286
C         98.02201       36.44840       29.20537
C         98.49262       36.42865       30.52375
C         98.38251       37.52051       28.36919
C         99.30760       37.45832       31.00070
C         99.19934       38.54759       28.84747
C         99.66238       38.51941       30.16878
O        100.44396       39.50482       30.65211
H         98.81963       33.12706       28.61498
H         98.02103       35.37906       26.73326
H         96.90256       34.59975       29.49007
H         96.17031       35.80551       28.37234
H         98.22455       35.62097       31.17873
H         98.03051       37.56686       27.34724
H         99.66662       37.44273       32.01712
H         99.46753       39.36496       28.19171
H        100.70756       40.26287       30.11256
N         96.23666       33.89733       25.65543
C         95.28277       33.02428       24.97151
C         96.04448       32.33984       23.85085
O         96.13010       31.11927       23.85474
C         94.05191       33.83415       24.45099
C         93.23458       34.52031       25.58015
C         93.12199       32.96483       23.58163
C         92.44470       33.57098       26.49046
H         96.57465       34.72613       25.14308
H         94.91303       32.23182       25.65417
H         94.43748       34.65247       23.80347
H         92.49368       35.20172       25.10519
H         93.90762       35.14742       26.20232
H         92.25254       33.55861       23.22747
H         93.64926       32.59561       22.68856
H         92.76090       32.07532       24.13736
H         93.11560       32.87317       27.02885
H         91.87807       34.16733       27.23675
H         91.69604       32.99180       25.90957
N         96.70599       33.07496       22.91075
C         97.64497       32.47308       21.97009
C         96.98344       31.72598       20.82613
O         97.69082       30.99879       20.14277
C         98.57135       33.54889       21.39079
O         99.21957       34.22282       22.43695
H         96.65094       34.10274       22.96573
H         98.28112       31.76096       22.54500
H         97.95167       34.25719       20.79097
H         99.33679       33.08254       20.73382
H         99.40717       35.14122       22.11172
N         95.65629       31.86715       20.52868
C         94.99235       31.17949       19.42398
C         94.99179       29.66664       19.58841
O         94.57923       28.98957       18.65602
C         95.58341       31.61455       18.07065
H         95.08585       32.51195       21.08570
H         93.92359       31.48877       19.39575
H         95.46212       32.71205       17.94804
H         96.65593       31.35904       17.96922
H         95.03584       31.12311       17.23718
N         95.34906       29.06390       20.76360
C         95.29528       27.62228       20.95578
C         94.15487       27.25124       21.87918
O         93.54938       28.12015       22.49286
C         96.62456       27.12634       21.53878
H         95.60628       29.63606       21.57976
H         95.11231       27.11073       19.98608
H         96.60590       26.02672       21.69355
H         97.46709       27.37325       20.85992
H         96.80945       27.61220       22.52235
N         93.79281       25.94103       21.98921
C         92.75881       25.42399       22.87981
C         91.35059       25.94680       22.58384
O         90.45086       25.60229       23.33797
C         93.15668       25.62588       24.36299
C         94.56122       25.05625       24.65405
C         94.91670       25.14824       26.11230
O         95.25309       24.15912       26.74633
O         94.91937       26.37417       26.67029
H         94.30359       25.24801       21.42114
H         92.70900       24.32270       22.73233
H         92.41591       25.08820       24.99494
H         93.12755       26.70313       24.63738
H         95.31010       25.66325       24.09988
H         94.63309       24.00459       24.30255
N         91.05928       26.72730       21.49879
C         89.72023       27.20407       21.19898
H         88.97346       26.89486       21.96065
H         89.72253       28.31303       21.14835
H         89.39566       26.80248       20.21568
H         91.79442       26.98463       20.82706
Ca        95.53266       27.59640       28.48695
O         94.98937       29.82939       27.07718
H         95.86660       30.28421       27.09662
H         94.66834       29.92350       26.14738
O         97.67530       25.76460       29.70005
H         97.20723       24.96444       30.04686
H         98.29321       26.02093       30.42860
O         92.90019       27.97268       28.60448
H         92.52216       28.07966       29.51192
H         92.65618       28.80029       28.12063
O         94.60738       26.01320       30.71239
H         95.09964       25.60249       31.46632
H         94.06990       25.27554       30.32908

Ca 1.0



