%chk=apoCaM-CA-Ng.loop1.water3.frame201.chk
%nprocshared=20
%mem=10GB
%nosave
#b3lyp/svp scf=(tight,noincore,xqc) Test 
#IOP(5/87=12) Density=Current Pop=(MK,readradii) iop(6/33=2) iop(6/42=6)

apoCaM-CA-Ng.loop1.water3.frame201 

   0  1 
C          5.41590        9.24644       35.44468
C          6.12812        9.17722       36.76509
O          7.19259        8.57959       36.83356
H          4.46640        9.81795       35.52388
H          6.06433        9.74814       34.69644
H          5.17879        8.22011       35.09612
N          5.59907        9.78323       37.86407
C          6.25877        9.79307       39.16736
C          6.38484        8.41483       39.82875
O          6.98827        8.36014       40.88390
C          5.58699       10.81247       40.12556
C          4.16079       10.49492       40.50024
O          3.83018       10.31539       41.79169
O          3.28519       10.45299       39.65198
H          4.72735       10.31614       37.73940
H          7.28272       10.18171       39.00749
H          5.61205       11.81966       39.65433
H          6.19291       10.87574       41.05691
N          5.88669        7.26241       39.29622
C          5.99473        5.95985       39.96154
C          6.87842        5.01562       39.14709
O          6.64614        4.93502       37.94856
C          4.58962        5.35004       40.13857
C          3.71215        6.15290       41.11794
C          2.39839        5.40108       41.40029
C          1.51380        6.05762       42.47625
N          0.90531        7.30921       42.02470
H          5.40104        7.28899       38.38914
H          6.41373        6.05995       40.97162
H          4.71627        4.32956       40.55967
H          4.07904        5.25659       39.15518
H          3.51596        7.16935       40.71458
H          4.26639        6.24641       42.07456
H          2.67029        4.39384       41.78469
H          1.81522        5.26945       40.46342
H          2.10320        6.22709       43.40332
H          0.69574        5.34679       42.72873
H          1.63307        8.01876       41.78700
H          0.29569        7.12611       41.19443
H          0.30681        7.68809       42.79484
N          7.87290        4.21249       39.66683
C          8.25619        4.03143       41.07291
C          7.06990        3.57822       41.90963
O          6.59468        4.35099       42.72968
C          9.00909        5.24730       41.68018
C         10.38081        5.46222       41.09837
O         10.80097        4.77098       40.18323
O         11.17902        6.40431       41.63692
H          8.36904        3.60460       38.99620
H          8.99976        3.20731       41.14258
H          9.17892        5.03494       42.75840
H          8.43861        6.19000       41.61103
N          6.52394        2.33107       41.80654
C          7.07419        1.24441       40.99458
C          6.22610       -0.02411       41.07832
O          5.12586        0.03642       41.60835
H          5.70396        2.14627       42.40320
H          8.08760        1.02766       41.36385
H          7.14316        1.54808       39.92900
N          6.61160       -1.22592       40.55161
C          7.92094       -1.52930       39.97634
C          8.95550       -1.77112       41.06453
O          8.58580       -2.18558       42.15570
C          7.82873       -2.77762       39.06010
C          7.33656       -4.02673       39.75826
O          6.29284       -4.55218       39.40379
O          8.04648       -4.58259       40.75872
H          5.91713       -1.98802       40.59308
H          8.23955       -0.68545       39.32629
H          8.82152       -2.99341       38.61000
H          7.12681       -2.53736       38.23162
N         10.28724       -1.57839       40.82143
C         11.32601       -1.88016       41.80152
C         11.24065       -1.06354       43.07828
O         11.99838       -1.34489       43.99430
H         10.58199       -1.23937       39.89326
H         12.32882       -1.71193       41.35236
H         11.24626       -2.95661       42.06756
N         10.33814       -0.05430       43.21883
C         10.12669        0.69781       44.44447
C          8.70545        0.42667       44.93670
O          7.94538       -0.26006       44.26937
C         10.36773        2.20537       44.14704
C         11.79349        2.47588       43.66874
O         10.15635        2.99309       45.28658
H          9.74455        0.20053       42.42732
H         10.82354        0.36272       45.24301
H          9.68196        2.52515       43.32700
H          9.22482        3.32270       45.23221
H         12.52174        2.18903       44.45741
H         12.01729        1.91309       42.73995
H         11.91056        3.56020       43.45510
N          8.28452        0.95511       46.11537
C          6.93813        0.80804       46.64813
C          6.21788        2.13446       46.48901
O          5.10793        2.14258       45.97218
C          7.00708        0.37842       48.14579
C          7.79197       -0.94314       48.36300
C          5.60588        0.29337       48.78365
C          7.18081       -2.18325       47.70311
H          8.94740        1.51541       46.66454
H          6.35430        0.04457       46.08717
H          7.56311        1.16660       48.70135
H          7.86419       -1.13582       49.45617
H          8.82881       -0.82120       47.98320
H          4.96762       -0.45208       48.26671
H          5.69057        0.01676       49.85638
H          5.09143        1.27578       48.73750
H          7.13831       -2.07000       46.60123
H          7.81382       -3.06623       47.93351
H          6.16402       -2.38813       48.09557
N          6.79735        3.29670       46.90573
C          6.12853        4.59258       46.88469
C          6.76679        5.55809       45.88602
O          7.76482        5.23121       45.26270
C          6.05727        5.15092       48.32621
C          7.44183        5.33719       48.97105
O          5.29905        4.26315       49.10819
H          7.75711        3.25917       47.27005
H          5.08197        4.46579       46.52711
H          5.54055        6.13545       48.28637
H          5.03616        4.75008       49.93185
H          8.07895        6.00237       48.35277
H          7.32704        5.78645       49.97854
H          7.95990        4.36578       49.11409
N          6.14294        6.73754       45.60489
C          6.50413        7.59709       44.47334
C          7.81135        8.37323       44.66988
O          8.43986        8.27649       45.71379
C          5.32889        8.57200       44.14176
C          5.15052        9.72334       45.14677
O          4.12754        7.86094       43.96266
H          5.27811        6.94319       46.12472
H          6.61000        6.94590       43.57709
H          5.53799        9.05810       43.17070
H          3.66146        7.78195       44.83507
H          4.31057       10.37087       44.81561
H          4.93635        9.34239       46.16516
H          6.06234       10.35225       45.18264
N          8.21308        9.23797       43.69015
C          9.30561       10.19446       43.77013
C         10.24835       10.02958       42.57753
O         11.43109        9.80968       42.79636
C          8.65998       11.60227       43.78784
C          9.62588       12.79789       43.80975
C         10.54845       12.88791       45.03501
C          9.78695       13.03457       46.36321
N         10.71772       13.24624       47.47185
H          7.63854        9.30737       42.85107
H          9.87501       10.05861       44.71568
H          7.98002       11.67110       44.66228
H          8.02340       11.71703       42.88319
H          9.01424       13.72656       43.76748
H         10.25157       12.77208       42.89248
H         11.18201       13.79107       44.89635
H         11.21756       12.00317       45.07709
H          9.18758       12.12014       46.56299
H          9.09461       13.90400       46.30348
H         11.25980       14.12824       47.32020
H         10.17820       13.33385       48.36321
H         11.37614       12.43758       47.55022
N          9.79323       10.13909       41.28965
C         10.64538       10.04292       40.10387
C         10.48180       11.30697       39.27408
O          9.36318       11.61586       38.88426
C         10.22928        8.82396       39.24686
C         11.17454        8.56048       38.05655
C         12.49815        7.99954       38.49663
O         12.52700        6.80397       39.11642
O         13.54013        8.58604       38.25170
H          8.78883       10.30527       41.13387
H         11.70820        9.90629       40.39984
H          9.20917        8.99399       38.85147
H         10.17865        7.91183       39.86942
H         11.31112        9.48742       37.45853
H         10.71348        7.79794       37.39351
N         11.54886       12.07582       38.93130
C         11.39272       13.24964       38.09606
H         10.72081       13.98388       38.59012
H         12.37788       13.72700       37.91520
H         10.95508       12.96034       37.11494
H         12.49409       11.81471       39.24797
Ca        14.41937        5.70628       39.67811
O         15.54003        7.57889       41.73725
H         15.36454        8.48354       41.37541
H         16.22603        7.19922       41.13213
O         14.46356        4.69162       42.99202
H         15.35030        4.31627       42.76141
H         14.60522        5.14983       43.85835
O         14.08432        2.40318       40.40007
H         14.27846        1.77972       39.65563
H         14.11445        1.83686       41.21170

Ca 1.0



