%chk=apoCaM-CA-Ng.loop4.water4.frame131.chk
%nprocshared=20
%mem=10GB
%nosave
#b3lyp/svp scf=(tight,noincore,xqc) Test 
#IOP(5/87=12) Density=Current Pop=(MK,readradii) iop(6/33=2) iop(6/42=6)

apoCaM-CA-Ng.loop4.water4.frame131 

   -3  1 
C         46.91729       48.44018       22.93585
C         47.62342       47.39326       23.73884
O         48.11567       46.44018       23.15530
H         45.86525       48.52843       23.27492
H         47.43485       49.41341       23.06610
H         46.92786       48.17580       21.85573
N         47.74554       47.52814       25.09204
C         48.47550       46.58962       25.93749
C         49.91195       46.46244       25.47436
O         50.35663       45.37723       25.15777
C         47.68396       45.27534       26.21871
C         46.85343       44.64061       25.11910
O         47.36327       44.02968       24.03008
O         45.63868       44.63809       25.24847
H         47.35688       48.37303       25.53779
H         48.58179       47.03902       26.95204
H         46.93532       45.56927       26.99078
H         48.33917       44.52423       26.71074
N         50.68746       47.58910       25.45567
C         52.10668       47.71542       25.11447
C         53.01841       47.07063       26.15627
O         53.73217       47.80958       26.82173
C         52.43931       47.29083       23.65821
C         53.92927       47.55870       23.29622
C         51.51331       47.99347       22.64896
C         54.39597       49.01605       23.43342
H         50.22172       48.47158       25.72076
H         52.31287       48.80727       25.17038
H         52.26725       46.19964       23.55153
H         54.09157       47.24847       22.24490
H         54.58537       46.93147       23.93689
H         50.45626       47.71958       22.83470
H         51.59946       49.09721       22.71629
H         51.76322       47.67665       21.61447
H         53.80218       49.69515       22.78952
H         54.33983       49.36505       24.48419
H         55.45913       49.09239       23.12366
N         53.06162       45.72426       26.37172
C         53.90494       45.12668       27.39585
C         55.37830       45.16276       26.97685
O         56.14089       45.79498       27.69380
C         53.38408       43.72939       27.81299
C         51.97647       43.81310       28.34646
O         51.07673       43.18701       27.80910
O         51.70150       44.57677       29.42123
H         52.46966       45.09646       25.82416
H         53.80123       45.73285       28.32647
H         54.03504       43.31871       28.61423
H         53.37279       43.01625       26.97632
N         55.89505       44.56475       25.85529
C         55.11767       43.77889       24.90656
C         55.92334       43.19681       23.75318
O         57.11756       43.44894       23.68024
H         56.90542       44.68785       25.68961
H         54.31643       44.41626       24.49177
H         54.72962       42.92305       25.44908
N         55.37208       42.39682       22.78115
C         53.96911       41.98304       22.64907
C         53.07978       43.20946       22.50093
O         52.25359       43.45339       23.36663
C         53.52402       40.99715       23.75126
C         54.44279       39.80756       23.81390
O         55.10338       39.52509       24.95244
O         54.59650       39.09393       22.83477
H         56.00722       42.06577       22.03742
H         53.85883       41.37597       21.72510
H         52.49953       40.63738       23.51352
H         53.46463       41.46520       24.74356
N         53.21735       44.07687       21.45349
C         54.09015       43.82852       20.31689
C         55.36483       44.61643       20.38606
O         55.50857       45.50283       21.21465
H         52.66169       44.94558       21.45137
H         53.54928       44.02068       19.36562
H         54.38787       42.77057       20.26291
N         56.38221       44.27712       19.54871
C         57.66730       44.96636       19.54147
C         57.55803       46.37699       18.97643
O         58.54342       47.10120       19.02026
C         58.72264       44.13967       18.77080
C         58.41371       43.94115       17.27369
C         59.46115       43.06881       16.63310
N         60.20489       43.52154       15.59815
O         59.62969       41.92989       17.04420
H         56.23791       43.46122       18.93723
H         58.02330       45.02737       20.59470
H         58.79387       43.14397       19.26322
H         59.71322       44.63593       18.86858
H         58.37069       44.92928       16.76907
H         57.43531       43.44161       17.12753
H         60.07283       44.47182       15.22748
H         60.91154       42.91388       15.15832
N         56.40085       46.82613       18.41091
C         56.22603       48.14529       17.82388
C         55.91587       48.04476       16.33404
O         55.71549       49.08782       15.72978
C         55.13020       48.94736       18.58722
C         55.61256       49.32896       19.99257
C         53.79717       48.19578       18.68566
H         55.59047       46.19583       18.35435
H         57.16421       48.74053       17.88766
H         54.95162       49.90091       18.04279
H         54.84280       49.94508       20.50433
H         55.81844       48.42602       20.60464
H         56.54085       49.93549       19.92423
H         53.43504       47.90581       17.67787
H         53.91363       47.28726       19.31084
H         53.02857       48.83591       19.16897
N         55.93179       46.85147       15.65588
C         55.76452       46.77708       14.20708
C         54.66595       45.82132       13.76092
O         54.41249       45.81123       12.56160
C         57.09777       46.31388       13.57587
C         58.24714       47.23329       13.91002
N         58.24983       48.52203       13.49885
O         59.19417       46.80451       14.55120
H         56.16121       45.97897       16.14886
H         55.50478       47.77612       13.79636
H         57.00719       46.26183       12.46891
H         57.32915       45.28959       13.94820
H         57.46857       48.90249       12.94632
H         59.04303       49.13992       13.72698
N         54.02697       44.94230       14.59756
C         53.11775       43.91668       14.08193
C         51.77771       43.90375       14.80475
O         51.74514       43.64919       16.00100
C         53.76711       42.52188       14.20460
C         55.15614       42.45214       13.60428
C         55.39140       42.76089       12.25144
C         56.23915       42.06404       14.41155
C         56.68785       42.69358       11.72597
C         57.52741       41.98521       13.88060
C         57.75874       42.30466       12.53762
O         59.00188       42.23817       12.01931
H         54.26330       44.91590       15.60010
H         52.93196       44.07908       12.99857
H         53.11588       41.77709       13.69628
H         53.82268       42.24254       15.27955
H         54.57793       43.06003       11.60356
H         56.08800       41.81418       15.45417
H         56.86095       42.94099       10.68604
H         58.34526       41.67372       14.51413
H         59.76637       41.97237       12.55103
N         50.62232       44.09856       14.10325
C         49.25483       43.94598       14.60886
C         48.81059       44.94779       15.66746
O         47.63014       44.91542       15.99384
C         48.99215       42.51837       15.15128
C         49.31082       41.40642       14.14582
C         48.92737       40.06657       14.71158
O         47.76328       39.82985       14.99604
O         49.86349       39.11821       14.90396
H         50.70383       44.30153       13.09478
H         48.57758       44.10588       13.73910
H         47.91409       42.44389       15.41895
H         49.58066       42.34503       16.07863
H         50.39831       41.41339       13.91785
H         48.74623       41.56917       13.20341
N         49.64647       45.83068       16.28598
C         49.16720       46.66501       17.38544
C         48.39159       47.87663       16.89187
O         47.85986       48.59995       17.72386
C         50.32565       47.10357       18.30673
C         51.14087       45.92104       18.86592
C         50.29768       44.93867       19.62305
O         49.61611       45.33408       20.71374
O         50.23283       43.77646       19.25558
H         50.64379       45.85568       16.04405
H         48.48512       46.05398       18.01940
H         49.90619       47.67602       19.16419
H         51.00900       47.77611       17.74721
H         51.90885       46.30935       19.55835
H         51.66639       45.40138       18.03849
N         48.28387       48.17791       15.56577
C         47.55461       49.33765       15.10252
H         46.49026       49.26549       15.41124
H         48.00391       50.26103       15.52619
H         47.60174       49.39618       13.99430
H         48.73399       47.58601       14.85353
Ca        49.45865       43.68318       23.29441
O         50.23990       41.19706       21.43145
H         50.70940       42.04980       21.25376
H         49.47752       41.19868       20.79965
O         47.25734       43.51470       20.90904
H         46.39402       43.99910       20.90627
H         47.45492       43.35004       19.95308
O         50.16248       41.35809       25.15744
H         49.82278       42.18733       25.57809
H         51.07932       41.25859       25.51596
O         47.58032       41.08806       23.26210
H         46.90929       41.38986       22.59983
H         47.80835       40.16648       22.98198

Ca 1.0



