%chk=apoCaM-CA-Ng.loop2.water3.frame626.chk
%nprocshared=20
%mem=10GB
%nosave
#b3lyp/svp scf=(tight,noincore,xqc) Test 
#IOP(5/87=12) Density=Current Pop=(MK,readradii) iop(6/33=2) iop(6/42=6)

apoCaM-CA-Ng.loop2.water3.frame626 

   -2  1 
C         76.17611       39.32322        1.89409
C         76.01330       40.77465        2.23353
O         74.97198       41.15273        2.75124
H         77.05184       38.90796        2.43507
H         75.27107       38.74695        2.18381
H         76.33366       39.21249        0.80077
N         77.01466       41.65697        1.95771
C         76.91069       43.08228        2.24902
C         76.77339       43.30272        3.74337
O         77.70054       42.98423        4.47645
C         78.15230       43.82745        1.71345
C         78.08915       45.30580        1.98071
O         79.03866       45.89444        2.73322
O         77.18172       45.97838        1.51831
H         77.86937       41.29657        1.50463
H         76.01542       43.47761        1.71884
H         78.23395       43.66723        0.61666
H         79.06743       43.41030        2.19013
N         75.62158       43.82094        4.26164
C         75.42023       44.04888        5.68903
C         74.45726       42.98808        6.24204
O         73.93220       42.23312        5.43447
C         74.94645       45.49372        5.88407
H         74.83495       44.01953        3.62376
H         76.38926       43.94370        6.19494
H         75.68150       46.18794        5.42273
H         73.96049       45.64754        5.39652
H         74.87155       45.78056        6.94455
N         74.17488       42.78091        7.56986
C         74.66208       43.55175        8.71460
C         76.17770       43.56999        8.83877
O         76.86800       42.83226        8.14949
C         74.01709       43.04009       10.02755
C         74.37544       41.61139       10.35121
O         75.65678       41.26082       10.57315
O         73.49943       40.76526       10.43364
H         73.52372       42.00562        7.77323
H         74.31299       44.59192        8.58883
H         72.91193       43.12563        9.92985
H         74.32232       43.67962       10.88186
N         76.76366       44.42790        9.71959
C         78.20155       44.61598        9.81682
C         78.75027       45.30463        8.57800
O         77.98657       45.57239        7.66136
H         76.16573       45.00889       10.32703
H         78.70489       43.64467       10.00699
H         78.39599       45.28968       10.67491
N         80.05233       45.69286        8.46310
C         81.09641       45.49183        9.46144
C         82.31071       44.77235        8.86748
O         83.29868       44.63911        9.57465
C         81.54208       46.87858        9.98320
C         80.42229       47.63419       10.65685
N         79.85352       47.16471       11.79191
O         80.03762       48.69215       10.18156
H         80.31417       46.21655        7.61150
H         80.73552       44.89162       10.32167
H         81.92670       47.47538        9.12554
H         82.36596       46.77049       10.72138
H         80.17421       46.28326       12.21806
H         79.09304       47.68752       12.25147
N         82.33846       44.31953        7.57606
C         83.54272       43.80668        6.93515
C         84.10432       42.50640        7.47915
O         85.15527       42.11573        6.98761
H         81.50997       44.41928        6.97479
H         84.32899       44.58948        7.01199
H         83.33496       43.64822        5.85469
N         83.50643       41.77884        8.46669
C         84.09815       40.56060        9.02653
C         83.18050       39.36208        8.84210
O         82.08789       39.51282        8.30846
C         84.39924       40.78320       10.53190
C         85.40588       41.91227       10.75440
O         83.21176       41.08174       11.22597
H         82.61152       42.10325        8.86274
H         85.05651       40.31089        8.51954
H         84.87993       39.87007       10.95335
H         83.02166       40.32323       11.83801
H         86.35867       41.68564       10.23050
H         85.01115       42.87760       10.38082
H         85.61523       42.01620       11.84021
N         83.55232       38.13498        9.31198
C         82.64340       37.00013        9.36896
C         82.01431       37.01147       10.74308
O         82.71661       36.83413       11.73037
C         83.38045       35.65408        9.08504
C         82.45000       34.43671        9.36454
C         83.91338       35.64513        7.64074
C         83.11919       33.07459        9.17949
H         84.45627       38.04375        9.80044
H         81.83373       37.11674        8.61260
H         84.24749       35.57553        9.77872
H         81.54753       34.48420        8.73027
H         82.11247       34.46875       10.42198
H         84.58433       36.51214        7.46740
H         84.51153       34.73346        7.43988
H         83.07425       35.69178        6.91409
H         82.40095       32.27489        9.46134
H         83.41085       32.90419        8.12418
H         84.01278       32.99309        9.83400
N         80.67838       37.23037       10.86863
C         79.96845       37.22151       12.13569
C         78.88929       36.14122       12.15614
O         78.12945       36.10909       13.11358
C         79.43705       38.63674       12.44760
C         78.51156       39.20134       11.41180
O         78.83959       40.34709       10.78384
O         77.45180       38.65227       11.15869
H         80.12457       37.41636       10.01906
H         80.65530       36.98161       12.97721
H         80.31386       39.31694       12.53693
H         78.92005       38.63218       13.43096
N         78.82940       35.15716       11.20135
C         77.92576       34.01718       11.29809
C         77.29592       33.69741        9.93728
O         77.62039       32.66116        9.37174
C         78.72193       32.80401       11.84344
C         77.79373       31.64439       12.13576
C         77.87463       30.45096       11.39770
C         76.82027       31.76056       13.14537
C         76.98418       29.40291       11.65409
C         75.93875       30.70844       13.40302
C         76.01695       29.53205       12.65482
H         79.53796       35.12628       10.45435
H         77.12400       34.21561       12.03741
H         79.24113       33.07567       12.78843
H         79.50638       32.52303       11.10499
H         78.61183       30.33811       10.61259
H         76.74229       32.66645       13.73365
H         77.04027       28.49166       11.07329
H         75.19198       30.80853       14.18022
H         75.32744       28.72139       12.85087
N         76.36570       34.50066        9.33630
C         75.68248       34.12722        8.10054
C         76.56830       34.00185        6.86968
O         76.05958       33.61249        5.82714
C         74.67052       35.25531        7.89406
C         74.36144       35.65867        9.32260
C         75.75671       35.66285        9.94281
H         75.16354       33.16145        8.29740
H         75.19045       36.12051        7.42384
H         73.79670       34.98189        7.26479
H         73.80232       36.61013        9.43582
H         73.76748       34.83762        9.78650
H         76.32734       36.56454        9.62976
H         75.67011       35.61357       11.04733
N         77.88327       34.35855        6.89413
C         78.75204       34.26547        5.73386
C         79.09306       32.80772        5.51243
O         78.79893       32.28483        4.44675
C         80.04434       35.11155        5.89737
C         79.84915       36.64275        5.74816
C         79.13463       37.39666        6.84233
O         78.87822       38.70516        6.67031
O         78.79938       36.87002        7.88567
H         78.29010       34.69180        7.77074
H         78.23290       34.66460        4.83262
H         80.70935       34.83138        5.05004
H         80.58215       34.86359        6.82751
H         79.30942       36.82225        4.79410
H         80.85312       37.11132        5.65993
N         79.70270       32.08723        6.49688
C         80.04419       30.68507        6.36917
H         81.13687       30.55823        6.51646
H         79.50679       30.10503        7.14871
H         79.77292       30.27050        5.37552
H         79.92747       32.54770        7.39180
Ca        77.67883       39.78145        8.25192
O         79.90723       41.98898        7.85775
H         80.04008       41.01626        7.73770
H         79.86389       42.34488        6.93530
O         76.28243       40.41682        5.80535
H         76.83776       40.21871        5.01120
H         75.44487       39.91104        5.65691
O         74.81647       38.81078        8.28620
H         74.59256       39.75986        8.12375
H         74.48967       38.34492        7.47716

Ca 1.0



