%chk=apoCaM-CA-Ng.loop3.water5.frame453.chk
%nprocshared=20
%mem=10GB
%nosave
#b3lyp/svp scf=(tight,noincore,xqc) Test 
#IOP(5/87=12) Density=Current Pop=(MK,readradii) iop(6/33=2) iop(6/42=6)

apoCaM-CA-Ng.loop3.water5.frame453 

   0  1 
C         78.27591       57.32524       89.21839
C         78.24881       55.83970       88.98995
O         77.17509       55.25599       88.98956
H         79.31119       57.72428       89.17032
H         77.66780       57.83206       88.44144
H         77.86559       57.57337       90.21348
N         79.41274       55.16349       88.78374
C         79.51973       53.73625       88.50656
C         78.98027       52.90179       89.66804
O         78.18527       51.99442       89.46707
C         78.89327       53.42486       87.12656
C         79.21174       52.04006       86.63939
O         80.49330       51.66955       86.45220
O         78.31270       51.25819       86.37555
H         80.29731       55.69396       88.81524
H         80.60822       53.51279       88.43218
H         79.31325       54.13424       86.37987
H         77.79326       53.57843       87.16033
N         79.39875       53.18502       90.93349
C         79.04316       52.43171       92.13662
C         78.17067       53.26044       93.07304
O         78.01097       52.88583       94.22699
C         80.35428       52.03821       92.83987
C         81.17128       51.05711       91.99114
C         82.56218       50.85258       92.59237
C         83.35231       49.81125       91.79344
N         84.72396       49.70975       92.28754
H         80.02099       53.99831       91.06246
H         78.47010       51.50635       91.90316
H         80.14796       51.55127       93.81862
H         80.93850       52.96618       93.03132
H         81.30364       51.45084       90.96008
H         80.62035       50.09192       91.93388
H         82.48234       50.51895       93.65006
H         83.09902       51.82698       92.56404
H         83.37677       50.09672       90.71816
H         82.84672       48.82358       91.88370
H         85.22562       48.96523       91.75219
H         85.21885       50.62025       92.14271
H         84.72799       49.46382       93.30387
N         77.49127       54.34516       92.60817
C         76.57984       55.16932       93.40016
C         75.54833       54.28845       94.09563
O         74.99133       53.40445       93.46035
C         75.93637       56.19473       92.43553
C         75.11852       57.33540       93.02660
O         75.85916       58.15802       93.87797
O         73.99432       56.90580       93.71827
H         77.58779       54.57592       91.60984
H         77.16616       55.72950       94.16121
H         75.31857       55.66134       91.68293
H         76.75705       56.70052       91.89536
N         75.27641       54.46103       95.42069
C         74.35829       53.63242       96.19152
C         72.97901       53.55566       95.57395
O         72.46971       52.45641       95.40883
H         75.74180       55.23215       95.92182
H         74.27426       54.06423       97.21326
H         74.77257       52.60530       96.29655
N         72.33149       54.68505       95.17708
C         71.01152       54.69089       94.54649
C         71.07347       55.06860       93.05869
O         70.03671       55.33723       92.46878
C         70.04175       55.54777       95.39196
C         70.36830       57.01562       95.52708
N         69.61714       57.78470       96.34829
O         71.29956       57.51665       94.91700
H         72.81482       55.58125       95.30828
H         70.57244       53.66941       94.55953
H         70.03684       55.11369       96.41648
H         69.01329       55.45854       94.98167
H         68.82989       57.37801       96.87465
H         69.82783       58.78404       96.47211
N         72.24097       54.94842       92.35726
C         72.38166       55.09140       90.91181
C         72.45494       56.51910       90.40479
O         72.69584       56.69680       89.22058
H         73.06983       54.61740       92.85419
H         71.58862       54.51488       90.38850
H         73.35459       54.63357       90.62798
N         72.26466       57.58340       91.22725
C         72.34988       58.97469       90.79427
C         71.76292       59.83646       91.88895
O         72.22427       59.79558       93.02059
C         73.79926       59.40445       90.45634
C         73.90657       60.90519       90.25437
C         73.17680       61.56321       89.24874
C         74.72205       61.66569       91.11213
C         73.25065       62.95563       89.11857
C         74.79369       63.05424       90.98043
C         74.05338       63.70537       89.98560
O         74.09915       65.04742       89.85992
H         72.00130       57.39835       92.20289
H         71.72756       59.10741       89.88253
H         74.15933       58.87159       89.55033
H         74.45884       59.11749       91.29516
H         72.53903       61.00390       88.57690
H         75.29519       61.18585       91.89471
H         72.67340       63.45499       88.35064
H         75.41825       63.62271       91.65846
H         74.62281       65.60248       90.45594
N         70.70396       60.63297       91.59707
C         69.95341       61.35332       92.60562
C         69.05729       60.35280       93.31199
O         69.07839       60.30052       94.53302
C         69.14999       62.51405       91.95140
C         70.06243       63.48228       91.14494
C         68.35262       63.30495       93.00234
C         71.16360       64.17314       91.95989
H         70.36308       60.66541       90.62460
H         70.64489       61.82063       93.34086
H         68.42002       62.08035       91.23178
H         69.42470       64.26660       90.68353
H         70.54935       62.93443       90.31199
H         67.77882       64.12140       92.51642
H         67.62687       62.65444       93.50767
H         69.01344       63.73346       93.78301
H         71.72873       64.85975       91.29789
H         70.74036       64.77972       92.78490
H         71.88192       63.43511       92.37286
N         68.27565       59.48521       92.59808
C         67.41645       58.49450       93.24098
C         66.24326       59.14410       93.95730
O         65.62507       58.48881       94.78202
C         66.89316       57.46740       92.22587
O         66.10698       58.10407       91.25524
H         68.33074       59.50475       91.56767
H         68.03685       57.94146       93.98084
H         66.28602       56.69933       92.75608
H         67.76409       56.97160       91.74089
H         65.85907       57.40330       90.59825
N         65.87637       60.42977       93.67579
C         64.81083       61.15854       94.34847
C         65.11205       61.25635       95.83342
O         64.28287       60.89791       96.66074
C         63.44065       60.54758       94.02443
H         66.38318       60.94368       92.94545
H         64.80536       62.19553       93.94212
H         63.35365       59.51013       94.40630
H         62.63254       61.16221       94.47355
H         63.29338       60.53112       92.92258
N         66.33286       61.71062       96.22704
C         66.78195       61.81458       97.60432
C         67.27513       63.21978       97.86205
O         68.11456       63.69897       97.10974
C         67.91963       60.82235       97.83715
H         67.01472       61.96221       95.49831
H         65.96793       61.55100       98.31612
H         67.55875       59.78935       97.64554
H         68.77524       61.03543       97.16262
H         68.26720       60.88527       98.89056
N         66.80280       63.93897       98.91673
C         67.19708       65.31032       99.22184
C         66.77409       66.22413       98.08182
O         67.58793       66.98050       97.56866
C         68.71779       65.43026       99.51627
C         69.20914       64.48490      100.61851
C         70.69688       64.62493      100.79160
O         71.22968       65.80854      101.15185
O         71.43102       63.66921      100.59534
H         66.10938       63.49911       99.54237
H         66.64012       65.62564      100.13260
H         68.94375       66.47946       99.81050
H         69.29620       65.21082       98.59431
H         68.97709       63.43402      100.33836
H         68.70218       64.71754      101.57858
N         65.49669       66.16779       97.61072
C         65.02146       66.96756       96.49984
H         64.13770       67.55568       96.82099
H         65.79299       67.67067       96.12131
H         64.72594       66.29525       95.66680
H         64.83276       65.50212       98.03397
Ca        74.13666       58.49556       95.32373
O         76.46811       57.72038       96.75283
H         77.24605       57.86238       96.15764
H         76.80762       57.14518       97.48194
O         71.85558       60.54353       96.54241
H         71.18686       61.07718       96.04501
H         72.03943       61.07590       97.35642
O         74.68639       59.99165       97.76135
H         74.72410       59.58713       98.66390
H         74.68109       60.96839       97.92076
O         74.68751       61.43326       94.54548
H         75.64955       61.66650       94.51957
H         74.27201       62.14681       95.09136
O         72.90695       57.00777       97.64889
H         72.37768       56.23796       97.97635
H         73.84664       56.76792       97.84794

Ca 1.0



