%chk=apoCaM-CA-Ng.loop2.water4.frame1138.chk
%nprocshared=20
%mem=10GB
%nosave
#b3lyp/svp scf=(tight,noincore,xqc) Test 
#IOP(5/87=12) Density=Current Pop=(MK,readradii) iop(6/33=2) iop(6/42=6)

apoCaM-CA-Ng.loop2.water4.frame1138 

   -2  1 
C         89.25705       52.57724       75.44790
C         88.82640       52.69800       76.87973
O         87.69891       52.33104       77.17876
H         90.14808       51.92481       75.35742
H         88.43967       52.13317       74.83991
H         89.48114       53.58924       75.05018
N         89.62758       53.21989       77.84958
C         91.01864       53.63376       77.66322
C         91.18124       55.10444       77.30170
O         90.44638       55.94522       77.78891
C         91.93556       53.19945       78.83967
C         91.52535       53.54879       80.25774
O         92.25197       53.20553       81.17615
O         90.34686       54.12783       80.55379
H         89.20750       53.28784       78.78330
H         91.44362       53.08231       76.79968
H         92.95362       53.60953       78.65134
H         92.01368       52.09221       78.81829
N         92.17466       55.46466       76.42863
C         92.53011       56.81964       76.00329
C         93.20848       57.66188       77.07838
O         93.65853       58.74453       76.73166
C         91.33653       57.56250       75.38510
H         92.74304       54.71062       76.01353
H         93.29619       56.71063       75.20209
H         90.55029       57.77159       76.13861
H         91.66930       58.53824       74.96818
H         90.90135       56.96526       74.55721
N         93.35853       57.24286       78.37165
C         94.02626       58.03820       79.41199
C         94.11068       57.28302       80.74582
O         93.57228       56.19280       80.88295
C         93.33881       59.42839       79.59417
C         91.86337       59.37111       79.87222
O         91.24522       58.20097       80.05978
O         91.21664       60.40222       79.93114
H         92.99665       56.31726       78.62404
H         95.07602       58.21739       79.08908
H         93.46419       60.02764       78.67358
H         93.83164       60.00785       80.40238
N         94.81541       57.81978       81.78135
C         94.97878       57.18523       83.08429
C         93.73285       57.18389       83.96079
O         93.86608       56.84285       85.12730
H         95.31246       58.71036       81.62772
H         95.73192       57.78486       83.64263
H         95.39137       56.15959       82.97160
N         92.51272       57.59019       83.50609
C         91.34360       57.80513       84.35864
C         90.19937       56.85956       84.00449
O         90.26860       56.14309       83.02090
C         90.96705       59.32212       84.21524
C         89.51189       59.66859       83.96608
N         89.11897       60.11004       82.74588
O         88.68739       59.56322       84.85929
H         92.39857       57.83393       82.51519
H         91.58198       57.58578       85.42250
H         91.50778       59.72202       83.32989
H         91.38510       59.90749       85.06155
H         89.79436       60.20640       81.97594
H         88.13345       60.34204       82.55772
N         89.10209       56.81232       84.81238
C         87.88366       56.07828       84.48243
C         86.81996       56.20109       85.57564
O         87.11327       56.74756       86.62954
H         89.14097       57.36514       85.67930
H         88.11103       55.00257       84.32055
H         87.48590       56.51110       83.54280
N         85.54699       55.72022       85.44386
C         84.98693       55.10260       84.24527
C         83.77128       55.88491       83.76844
O         83.26820       56.73256       84.49439
C         84.56715       53.64580       84.54481
C         85.77745       52.77696       84.89404
O         83.64898       53.63369       85.61068
H         84.91777       55.82295       86.25654
H         85.72847       55.10553       83.42168
H         84.08841       53.22202       83.63110
H         83.16777       52.76663       85.57490
H         86.29640       53.16274       85.79662
H         85.44535       51.73632       85.09449
H         86.48953       52.76102       84.04189
N         83.26824       55.66106       82.52011
C         82.09258       56.34930       81.98044
C         81.15440       55.34882       81.29764
O         81.60736       54.26402       80.95835
C         82.52755       57.50584       81.02426
C         83.46473       57.00279       79.89346
C         83.16845       58.63351       81.85580
C         83.91872       58.09803       78.92534
H         83.77693       55.00293       81.90995
H         81.53281       56.80176       82.81871
H         81.62923       57.94617       80.54856
H         82.92725       56.22789       79.30581
H         84.38001       56.54462       80.32268
H         83.39200       59.52092       81.23189
H         82.45884       58.97346       82.64112
H         84.10044       58.29312       82.34746
H         83.05331       58.60167       78.45724
H         84.53800       58.85920       79.43966
H         84.54258       57.64614       78.12632
N         79.83134       55.59933       81.04612
C         79.08131       56.75286       81.54377
C         77.87623       57.08282       80.66157
O         77.57544       56.35540       79.72449
C         78.66463       56.51006       83.01978
C         77.90699       55.22489       83.22090
O         76.83400       55.04061       82.67019
O         78.41315       54.27093       84.02748
H         79.29581       54.84399       80.58854
H         79.71044       57.65887       81.50168
H         78.05771       57.35633       83.40201
H         79.56846       56.45901       83.65668
N         77.13733       58.19865       80.93233
C         75.94439       58.60646       80.19484
C         76.03380       60.09644       79.83250
O         76.40719       60.85602       80.71669
C         74.73253       58.32455       81.09560
C         73.43082       58.52241       80.36419
C         72.81710       59.78418       80.32591
C         72.82507       57.43998       79.70077
C         71.61252       59.95842       79.63766
C         71.62343       57.61962       79.01112
C         71.01635       58.87751       78.98113
H         77.40254       58.76643       81.75092
H         75.80267       57.96777       79.30974
H         74.75811       58.91400       82.03739
H         74.79431       57.25407       81.39647
H         73.27146       60.62899       80.82768
H         73.28698       56.45985       79.71004
H         71.14186       60.93204       79.61226
H         71.16408       56.78348       78.49929
H         70.08472       59.01425       78.44801
N         75.66946       60.63352       78.61609
C         75.04219       59.93425       77.50158
C         75.90921       58.84297       76.93869
O         75.47839       57.69769       76.92159
C         74.76381       61.03858       76.46465
C         74.55301       62.24552       77.35406
C         75.67681       62.06321       78.36703
H         74.07168       59.52688       77.85521
H         75.67275       61.26377       75.86582
H         73.93662       60.81259       75.75811
H         74.56287       63.22483       76.82852
H         73.57954       62.12576       77.88172
H         76.65735       62.33654       77.91587
H         75.48229       62.68261       79.26896
N         77.15871       59.12245       76.47376
C         78.05980       58.08629       76.01680
C         77.92864       57.95525       74.50860
O         78.28145       58.90923       73.82906
C         79.53269       58.37955       76.40619
C         79.80289       58.48141       77.92258
C         79.47126       59.79652       78.58790
O         79.09423       60.76374       77.94887
O         79.68193       59.93256       79.91045
H         77.46643       60.10077       76.41812
H         77.81552       57.15189       76.54566
H         79.93421       59.28071       75.89337
H         80.11257       57.50323       76.04071
H         80.88608       58.34036       78.08215
H         79.28974       57.64698       78.43087
N         77.43457       56.85307       73.86561
C         76.89650       55.64853       74.47348
H         75.85081       55.50936       74.12692
H         77.49605       54.77342       74.14974
H         76.86343       55.65000       75.57244
H         77.41586       56.87407       72.83426
Ca        90.12540       56.32616       80.38183
O         87.02215       57.69648       81.14967
H         86.67825       58.27677       80.42650
H         86.26714       57.62427       81.78444
O         87.12048       55.86891       78.45111
H         87.21067       56.23463       77.53567
H         86.52984       55.08119       78.34683
O         88.53050       58.70417       78.46744
H         88.70476       59.32315       79.22029
H         88.07371       59.26181       77.78905
O         87.44827       54.58723       81.23021
H         87.86342       53.75386       81.56631
H         86.56157       54.30405       80.89345

Ca 1.0



