%chk=apoCaM-CA-Ng.loop2.water5.frame494.chk
%nprocshared=20
%mem=10GB
%nosave
#b3lyp/svp scf=(tight,noincore,xqc) Test 
#IOP(5/87=12) Density=Current Pop=(MK,readradii) iop(6/33=2) iop(6/42=6)

apoCaM-CA-Ng.loop2.water5.frame494 

   -2  1 
C         66.42981       52.17260       60.50523
C         66.63833       51.72645       59.08781
O         65.74984       51.11452       58.51149
H         65.41526       51.89685       60.86392
H         67.18519       51.68847       61.15922
H         66.54412       53.27538       60.57395
N         67.80450       52.02351       58.44966
C         68.07558       51.64438       57.06540
C         68.39035       50.15308       56.88619
O         68.60411       49.74576       55.75638
C         69.18443       52.54425       56.47101
C         70.53906       52.43210       57.12167
O         71.45029       53.13912       56.72213
O         70.76587       51.57518       58.13608
H         68.49403       52.59781       58.95952
H         67.16922       51.87747       56.46175
H         68.84572       53.60085       56.55936
H         69.29431       52.31813       55.38834
N         68.43200       49.28671       57.94626
C         68.69394       47.84679       57.83115
C         68.67862       47.23625       59.22306
O         67.69721       47.41812       59.92863
C         67.63998       47.14113       56.96573
H         68.27264       49.66486       58.88853
H         69.68942       47.68684       57.36177
H         67.65029       47.51826       55.92387
H         67.86790       46.05382       56.91738
H         66.62210       47.27867       57.38591
N         69.74026       46.51564       59.69006
C         69.84245       46.08139       61.07940
C         69.75856       44.56532       61.19952
O         70.63253       43.86146       60.71467
C         71.16431       46.63004       61.65516
C         71.38851       46.24635       63.09124
O         72.32318       45.51653       63.37825
O         70.58116       46.68152       64.07577
H         70.52481       46.30829       59.05420
H         69.01230       46.51538       61.67616
H         71.17641       47.73417       61.56256
H         72.00364       46.22895       61.04326
N         68.71265       44.00677       61.87601
C         68.59784       42.58061       62.15106
C         67.29465       42.29357       62.87176
O         66.50211       41.49928       62.38493
H         67.97534       44.63502       62.22927
H         69.44929       42.26557       62.79236
H         68.63364       42.00354       61.20082
N         66.98810       42.96701       64.01792
C         65.70214       42.86842       64.70726
C         64.56347       43.21394       63.77422
O         64.62392       44.24807       63.12175
C         65.62690       43.89062       65.86675
C         66.53844       43.56616       67.01456
N         66.33046       42.45477       67.75765
O         67.44610       44.33108       67.30327
H         67.68563       43.63537       64.38102
H         65.55157       41.84234       65.10911
H         64.59296       43.92698       66.27858
H         65.86363       44.89960       65.46334
H         65.54843       41.81797       67.54394
H         66.93503       42.24315       68.56432
N         63.43428       42.44860       63.76273
C         62.23345       42.84894       63.04952
C         61.19248       43.32936       64.03293
O         61.38951       43.20780       65.23560
H         63.37890       41.61970       64.37548
H         61.84832       42.01095       62.42962
H         62.44760       43.69871       62.36879
N         60.06849       43.95122       63.57987
C         59.05693       44.50421       64.47832
C         59.69428       45.49482       65.45185
O         59.60168       45.26311       66.64948
C         57.83529       45.08349       63.70284
C         58.11679       46.28955       62.78987
O         57.20508       44.05790       62.97210
H         59.95366       44.04746       62.56071
H         58.64436       43.66504       65.08455
H         57.09602       45.43244       64.45628
H         57.73848       43.87782       62.15494
H         58.43751       47.16803       63.37977
H         58.88281       46.04994       62.02312
H         57.18171       46.58308       62.26811
N         60.41049       46.57401       65.01718
C         61.14055       47.47339       65.91460
C         62.62677       47.39339       65.60973
O         63.00942       46.63254       64.72909
C         60.52902       48.91165       65.89737
C         60.50607       49.64202       64.52963
C         59.09252       48.83903       66.44702
C         61.88018       50.06039       64.01089
H         60.49954       46.73818       64.00453
H         61.05596       47.12399       66.96725
H         61.09191       49.54923       66.61349
H         59.93535       50.58896       64.65721
H         59.97755       49.03590       63.76556
H         58.43851       48.23526       65.78319
H         59.09006       48.38304       67.46092
H         58.65936       49.85763       66.54007
H         61.75160       50.64955       63.07807
H         62.39074       50.70362       64.76026
H         62.51419       49.18878       63.76938
N         63.53435       48.12271       66.32401
C         64.97408       47.97641       66.14181
C         65.59892       47.60692       67.48463
O         66.58186       48.20800       67.89534
C         65.53473       49.28286       65.54285
C         66.97345       49.21084       65.11596
O         67.55889       50.31322       64.61728
O         67.60813       48.17059       65.18467
H         63.20212       48.78309       67.04260
H         65.18128       47.15521       65.42414
H         65.40956       50.10133       66.27902
H         64.94814       49.54769       64.63788
N         65.00229       46.65866       68.26235
C         65.45612       46.28671       69.60089
C         65.62061       47.52515       70.49286
O         64.69353       48.32060       70.55998
C         64.41636       45.33629       70.24233
C         64.80488       44.89932       71.63521
C         65.66327       43.80440       71.83134
C         64.30924       45.59225       72.75411
C         66.01664       43.41081       73.12729
C         64.67273       45.20211       74.04540
C         65.52385       44.11074       74.23258
H         64.14490       46.21244       67.90030
H         66.41440       45.74209       69.49618
H         64.25073       44.43725       69.60827
H         63.44032       45.86878       70.28871
H         66.05331       43.25499       70.98379
H         63.65130       46.44276       72.62591
H         66.67349       42.56366       73.27620
H         64.29393       45.74683       74.90070
H         65.80069       43.80813       75.23434
N         66.74671       47.73692       71.24763
C         66.92768       48.85322       72.17374
C         66.93626       50.22283       71.51995
O         66.40281       51.16205       72.09197
C         68.31151       48.59026       72.78614
C         68.37733       47.08294       72.76933
C         67.83758       46.78741       71.37789
H         66.15403       48.78799       72.97207
H         69.11409       48.94194       72.09662
H         68.46664       49.06601       73.77828
H         69.37795       46.64973       72.97845
H         67.65067       46.69515       73.52163
H         68.59796       47.00252       70.59393
H         67.53410       45.72384       71.35681
N         67.58813       50.40774       70.33926
C         67.79493       51.70596       69.69745
C         66.48814       52.43679       69.46154
O         66.35868       53.55719       69.93617
C         68.56089       51.51651       68.36835
C         70.00475       51.03336       68.61913
C         70.69495       50.57220       67.36819
O         71.81865       50.10302       67.44703
O         70.04034       50.53521       66.19119
H         67.97198       49.56730       69.88215
H         68.41993       52.34614       70.36034
H         68.61880       52.47457       67.80565
H         68.00043       50.78164       67.74761
H         70.00472       50.15472       69.29607
H         70.58569       51.84294       69.11115
N         65.47644       51.87172       68.74892
C         64.22024       52.54821       68.48491
H         63.38645       51.97233       68.93651
H         64.19529       53.57888       68.90051
H         64.06216       52.61764       67.38861
H         65.59351       50.91620       68.38633
Ca        70.51303       48.83310       64.78267
O         68.99067       49.30006       62.30545
H         69.26938       49.75142       61.47035
H         68.06600       48.99320       62.13126
O         69.80226       47.60896       67.66491
H         69.10741       47.28259       67.04193
H         70.19480       46.78541       68.04703
O         69.95810       52.18800       63.38950
H         69.36526       52.11870       64.17816
H         69.79283       53.09981       63.04225
O         72.23950       49.93459       62.53031
H         72.69524       50.79146       62.72255
H         72.88394       49.42830       61.97473
O         73.37964       48.03022       65.46600
H         73.11383       47.73696       66.37378
H         73.37565       49.01939       65.51225

Ca 1.0



