%chk=apoCaM-CA-Ng.loop3.water4.frame207.chk
%nprocshared=20
%mem=10GB
%nosave
#b3lyp/svp scf=(tight,noincore,xqc) Test 
#IOP(5/87=12) Density=Current Pop=(MK,readradii) iop(6/33=2) iop(6/42=6)

apoCaM-CA-Ng.loop3.water4.frame207 

   0  1 
C         24.48401       46.76641       41.67135
C         24.37406       47.72783       40.52408
O         24.77398       48.87310       40.66858
H         24.94283       47.25607       42.55788
H         23.47451       46.39868       41.95017
H         25.11803       45.90399       41.37598
N         23.83105       47.31896       39.34012
C         23.69997       48.16695       38.15531
C         22.74946       49.34283       38.35827
O         22.77199       50.26436       37.55421
C         25.08692       48.58321       37.61353
C         25.87645       47.37012       37.20022
O         27.05486       47.09352       37.78415
O         25.45181       46.63034       36.32621
H         23.50095       46.34467       39.26601
H         23.22341       47.57073       37.34639
H         25.65008       49.16858       38.36926
H         24.96780       49.22235       36.71250
N         21.80026       49.31819       39.33735
C         20.75635       50.32939       39.49298
C         20.89673       51.06579       40.81662
O         20.02392       51.85690       41.14760
C         19.38242       49.62945       39.41580
C         19.18197       48.91161       38.06812
C         17.83122       48.18722       37.95143
C         17.68262       47.02762       38.95236
N         16.43942       46.29342       38.72122
H         21.77164       48.52089       39.99086
H         20.80319       51.09584       38.68831
H         18.57101       50.38057       39.53898
H         19.31905       48.90224       40.25174
H         19.99050       48.16702       37.90344
H         19.24145       49.66918       37.25617
H         17.76951       47.76831       36.92330
H         16.99822       48.91201       38.08134
H         17.68027       47.41408       39.99352
H         18.54084       46.32848       38.83789
H         15.61753       46.92961       38.83649
H         16.43855       45.88427       37.75853
H         16.36770       45.51561       39.41656
N         21.98594       50.87820       41.61406
C         22.17464       51.52280       42.90492
C         22.13050       53.03991       42.76789
O         22.64916       53.57741       41.79922
C         23.49813       51.01939       43.52112
C         23.65788       51.40869       44.95913
O         23.67327       50.45687       45.90872
O         23.77874       52.57588       45.27920
H         22.72780       50.24197       41.29739
H         21.35300       51.18831       43.57767
H         24.36902       51.36281       42.92235
H         23.48342       49.90667       43.49238
N         21.50232       53.78547       43.71907
C         21.32622       55.22897       43.66723
C         22.62154       55.99231       43.50637
O         22.69974       56.83417       42.62313
H         21.11324       53.29987       44.54069
H         20.84915       55.55041       44.61918
H         20.63417       55.49306       42.83847
N         23.68505       55.73877       44.31652
C         24.95310       56.46667       44.24394
C         26.04252       55.65670       43.54962
O         27.16478       56.13643       43.45900
C         25.35011       56.95376       45.66021
C         25.98765       55.90448       46.59559
N         27.43370       55.85367       46.44061
O         25.44545       54.63350       46.40670
H         23.58592       54.97721       44.99428
H         24.80862       57.38391       43.63212
H         24.43539       57.36187       46.14233
H         26.06270       57.80341       45.58300
H         27.81590       56.75340       46.81237
H         27.79681       55.11049       47.07320
N         25.76817       54.45110       42.97018
C         26.73973       53.67651       42.22431
C         27.76642       53.05241       43.12678
O         28.94844       53.30301       42.94813
H         24.81196       54.07794       42.99453
H         27.20841       54.31330       41.44131
H         26.21835       52.84114       41.70867
N         27.37011       52.18753       44.10458
C         28.30146       51.47599       44.97163
C         28.11828       51.90029       46.40799
O         27.19288       52.62991       46.71744
C         28.08847       49.94827       44.86620
C         28.44080       49.39398       43.51016
C         29.58200       48.58586       43.37341
C         27.64814       49.65771       42.37955
C         29.93587       48.06535       42.12951
C         28.00370       49.13067       41.13381
C         29.15291       48.33646       41.00621
O         29.51793       47.83015       39.81300
H         26.36291       52.01641       44.23469
H         29.35144       51.71949       44.70106
H         27.04459       49.66791       45.12883
H         28.74418       49.45926       45.61700
H         30.20854       48.36609       44.22906
H         26.75312       50.26040       42.45811
H         30.82390       47.45325       42.03937
H         27.38762       49.33967       40.26937
H         29.02099       48.01328       39.00553
N         28.99307       51.45465       47.35575
C         28.86053       51.82016       48.75637
C         29.10113       53.31148       48.88286
O         28.20164       54.02567       49.30176
C         29.83987       51.01653       49.67531
C         29.80386       49.47766       49.44714
C         29.56500       51.34347       51.15659
C         28.42994       48.82780       49.59793
H         29.76569       50.84629       47.06063
H         27.82643       51.56827       49.08120
H         30.88515       51.32311       49.45622
H         30.51008       48.99248       50.15514
H         30.17534       49.23495       48.43114
H         29.69224       52.42754       51.35330
H         28.52946       51.06433       51.44326
H         30.27678       50.79663       51.81043
H         27.73079       49.24196       48.84812
H         28.51958       47.73715       49.40924
H         28.02056       48.97338       50.61699
N         30.30663       53.84623       48.53020
C         30.62944       55.26489       48.64085
C         30.37831       55.74524       50.05558
O         29.62555       56.69294       50.21698
C         32.07581       55.53314       48.18296
O         32.99421       54.80083       48.94852
H         31.03575       53.20617       48.17822
H         29.96980       55.84393       47.95733
H         32.30082       56.61878       48.26829
H         32.15424       55.23161       47.11232
H         33.84586       54.79818       48.43902
N         30.93998       55.09522       51.11883
C         30.66471       55.32365       52.53744
C         29.36495       56.06885       52.83015
O         29.37650       57.06540       53.54080
C         31.89433       55.96817       53.18487
H         31.59349       54.32369       50.91993
H         30.51262       54.32352       53.00022
H         32.07536       56.97004       52.73855
H         31.74936       56.07765       54.28021
H         32.79154       55.33634       53.01115
N         28.19199       55.61314       52.29863
C         26.89058       56.22251       52.55294
C         25.85807       55.15973       52.87804
O         26.11341       53.98590       52.64239
C         26.43440       56.99061       51.31014
H         28.23387       54.80992       51.65549
H         26.96443       56.93528       53.40311
H         26.34659       56.30487       50.43901
H         25.45037       57.47449       51.48634
H         27.17286       57.78240       51.06371
N         24.65217       55.50403       53.42395
C         23.56408       54.55446       53.66552
C         23.94145       53.38714       54.57861
O         23.11258       52.50091       54.74171
C         23.00502       54.04239       52.31490
C         22.34004       55.18158       51.52550
C         21.75128       54.69916       50.23372
O         22.02361       55.35834       49.09698
O         20.95596       53.77375       50.21774
H         24.48090       56.49416       53.65735
H         22.72487       55.08257       54.17196
H         22.21531       53.28419       52.51216
H         23.79993       53.55461       51.71565
H         23.06973       55.99397       51.31393
H         21.51389       55.60110       52.13783
N         25.13988       53.30428       55.22449
C         25.49331       52.15182       56.02356
H         26.50453       52.28976       56.46093
H         24.75929       52.01276       56.84456
H         25.50880       51.24481       55.38090
H         25.83087       54.06285       55.16211
Ca        23.60049       54.67391       47.68411
O         21.26435       52.28618       47.04347
H         20.46239       51.90739       46.60369
H         20.93750       53.10329       47.49596
O         22.62541       50.91508       49.52345
H         21.65208       51.09469       49.54794
H         22.69320       49.92732       49.51976
O         25.39500       49.78192       47.99794
H         25.23374       49.09261       48.68970
H         25.67048       49.26717       47.19797
O         25.34545       52.96381       49.62981
H         25.59526       53.91947       49.56182
H         25.87579       52.62246       50.39280

Ca 1.0



