%chk=apoCaM-CA-Ng.loop4.water2.frame301.chk
%nprocshared=20
%mem=10GB
%nosave
#b3lyp/svp scf=(tight,noincore,xqc) Test 
#IOP(5/87=12) Density=Current Pop=(MK,readradii) iop(6/33=2) iop(6/42=6)

apoCaM-CA-Ng.loop4.water2.frame301 

   -3  1 
C         91.08435       39.21204       27.77131
C         92.24357       38.60892       28.50126
O         92.47061       39.01724       29.62092
H         90.15660       39.03430       28.35825
H         91.23945       40.30794       27.67857
H         90.96159       38.77259       26.76206
N         92.99505       37.60800       27.95668
C         94.09422       36.93331       28.64603
C         93.75149       36.49350       30.05040
O         94.14639       37.16687       30.98260
C         95.48731       37.59723       28.48491
C         95.73102       39.07602       28.74948
O         95.60491       39.70023       29.94663
O         96.22141       39.72449       27.83812
H         92.72900       37.25210       27.02662
H         94.26444       35.96951       28.11201
H         95.76823       37.43686       27.41755
H         96.21954       37.00771       29.07914
N         93.01015       35.35969       30.25348
C         92.61713       34.78964       31.54713
C         93.80168       34.09365       32.23540
O         93.73769       32.88182       32.39279
C         91.82985       35.81411       32.41636
C         91.31343       35.22307       33.75660
C         90.66454       36.42149       31.60678
C         90.31738       34.06871       33.63025
H         92.66889       34.86189       29.41648
H         91.90019       33.97179       31.31130
H         92.50843       36.64399       32.68476
H         90.80268       36.02556       34.32935
H         92.17772       34.87933       34.36218
H         90.11348       37.16552       32.21420
H         91.03775       36.94694       30.70461
H         89.95577       35.63890       31.26689
H         90.77332       33.19780       33.11997
H         90.01127       33.74757       34.64771
H         89.40306       34.38554       33.08769
N         94.93344       34.75570       32.61094
C         96.13191       34.08383       33.10211
C         95.93971       33.45347       34.48567
O         96.15292       32.25128       34.56236
C         97.36528       35.01170       32.99783
C         97.74653       35.35713       31.57692
O         97.11677       34.92533       30.62342
O         98.81213       36.15030       31.35672
H         94.99545       35.76473       32.47714
H         96.37708       33.24650       32.40630
H         98.24226       34.50358       33.45506
H         97.17582       35.96794       33.50423
N         95.51928       34.09282       35.62380
C         95.11882       35.48300       35.75926
C         96.28384       36.45314       35.85482
O         97.42386       36.01337       35.81517
H         95.37889       33.50414       36.46050
H         94.56556       35.58545       36.71495
H         94.41523       35.72082       34.94463
N         96.10971       37.80186       36.02675
C         94.81929       38.45328       36.25753
C         93.83775       38.23208       35.12108
O         94.27358       37.98298       34.00643
C         94.99866       39.96445       36.55210
C         95.57454       40.73759       35.39668
O         96.75860       41.36294       35.53128
O         94.95929       40.83435       34.34675
H         96.95961       38.38585       36.06740
H         94.40827       37.97789       37.17174
H         95.67012       40.06558       37.43140
H         94.03547       40.44211       36.81952
N         92.48826       38.21963       35.31837
C         91.82375       38.50397       36.57566
C         91.44110       37.23758       37.28623
O         92.31988       36.47515       37.66169
H         91.88295       37.97096       34.52661
H         90.95008       39.16056       36.36967
H         92.45879       39.06183       37.28018
N         90.13808       36.96654       37.54379
C         89.72003       35.83688       38.37139
C         88.25593       35.42275       38.20129
O         87.85001       34.49139       38.88169
C         90.08246       36.09827       39.86706
C         89.26661       37.16016       40.64676
C         89.39630       38.58208       40.15208
N         89.96692       39.54323       40.91491
O         88.94949       38.88561       39.06313
H         89.46416       37.63384       37.16241
H         90.29763       34.94481       38.04026
H         91.16089       36.35005       39.95303
H         89.93909       35.14058       40.41397
H         89.62786       37.12413       41.69831
H         88.19309       36.87952       40.66162
H         90.34669       39.33173       41.84793
H         90.03006       40.51137       40.56388
N         87.41364       36.02589       37.30858
C         86.01550       35.66768       37.12961
C         85.11373       36.81298       37.57776
O         83.90245       36.65227       37.49759
C         85.74593       35.24426       35.65514
C         86.58539       34.01286       35.27979
C         85.99935       36.37583       34.64130
H         87.73455       36.78856       36.71335
H         85.74837       34.80159       37.77531
H         84.67477       34.95437       35.57423
H         87.67051       34.24228       35.33339
H         86.36587       33.17053       35.96982
H         86.34737       33.68331       34.24583
H         87.06698       36.67738       34.61536
H         85.72479       36.03622       33.62034
H         85.37937       37.26376       34.88404
N         85.62043       37.96226       38.12741
C         84.79046       39.00256       38.71644
C         85.09394       40.38028       38.14141
O         84.16696       41.02568       37.67394
C         85.00504       39.02165       40.24475
C         84.75256       37.66981       40.87517
N         83.55185       37.05421       40.76203
O         85.65119       37.12253       41.49609
H         86.63630       38.07778       38.23142
H         83.71277       38.78690       38.54352
H         84.31760       39.76631       40.70196
H         86.04900       39.33028       40.47452
H         82.77647       37.48987       40.24350
H         83.39874       36.12909       41.19104
N         86.35320       40.91924       38.19459
C         86.64530       42.31310       37.85663
C         87.59810       42.46647       36.67859
O         88.29069       41.52608       36.32068
C         87.32788       42.98860       39.06900
C         86.52732       42.94014       40.34563
C         85.29980       43.61128       40.44115
C         87.02281       42.25055       41.46787
C         84.58274       43.60133       41.64174
C         86.30280       42.23827       42.66526
C         85.08412       42.91670       42.75910
O         84.40906       42.90966       43.92609
H         87.12310       40.34623       38.55545
H         85.70421       42.84415       37.59794
H         87.55068       44.05348       38.84334
H         88.30439       42.47651       39.23286
H         84.90693       44.15420       39.59132
H         87.96950       41.72730       41.42277
H         83.64211       44.13273       41.70444
H         86.69775       41.70848       43.52369
H         83.57064       43.37981       44.03816
N         87.70264       43.69561       36.07927
C         88.66503       44.11665       35.05533
C         88.62106       43.38815       33.71941
O         89.35987       43.82158       32.84438
C         90.11572       44.04686       35.59425
C         90.38434       44.96463       36.79416
C         90.24298       46.41878       36.43423
O         89.35657       47.19379       37.08652
O         90.94078       46.90700       35.55850
H         87.06997       44.43666       36.41976
H         88.43828       45.18001       34.81245
H         90.83248       44.34020       34.79453
H         90.35114       42.99838       35.87294
H         91.42908       44.79763       37.13394
H         89.70258       44.70562       37.63041
N         87.85174       42.29281       33.46200
C         87.97713       41.54193       32.21371
C         86.67345       41.51072       31.42889
O         86.67632       40.96265       30.33441
C         88.44735       40.10514       32.53635
C         89.73380       40.01410       33.38999
C         91.00293       40.40993       32.68272
O         91.98146       39.49098       32.53726
O         91.16675       41.54644       32.27148
H         87.20533       41.93173       34.17446
H         88.73007       42.00774       31.54315
H         88.58767       39.52126       31.59953
H         87.63723       39.61925       33.12291
H         89.84384       38.95482       33.69856
H         89.62891       40.60998       34.31781
N         85.52128       42.07092       31.89961
C         84.29147       42.04199       31.13783
H         83.47641       42.52855       31.71493
H         84.42633       42.59043       30.18147
H         83.99806       40.99162       30.92638
H         85.49368       42.52906       32.82074
Ca        93.97955       39.82656       31.52579
O         96.91650       39.00138       32.62399
H         96.81749       38.12770       32.16938
H         97.74282       38.91186       33.16157
O         93.78364       42.72687       30.79261
H         94.50941       43.39016       30.67935
H         93.32247       43.00494       31.62324

Ca 1.0



