%chk=apoCaM-CA-Ng.loop1.water5.frame559.chk
%nprocshared=20
%mem=10GB
%nosave
#b3lyp/svp scf=(tight,noincore,xqc) Test 
#IOP(5/87=12) Density=Current Pop=(MK,readradii) iop(6/33=2) iop(6/42=6)

apoCaM-CA-Ng.loop1.water5.frame559 

   0  1 
C         77.45439       40.39245        1.06276
C         77.18722       41.75525        0.49090
O         76.36505       41.85945       -0.40691
H         78.23125       40.42671        1.85532
H         76.52143       39.97716        1.49733
H         77.80963       39.71751        0.25520
N         77.85532       42.85033        0.96368
C         77.72715       44.21173        0.43751
C         76.34887       44.84283        0.64757
O         76.17811       45.97793        0.22502
C         78.10226       44.25840       -1.06810
C         79.48206       43.73670       -1.37951
O         79.86854       43.72643       -2.53713
O         80.30008       43.28416       -0.40897
H         78.54145       42.71050        1.72135
H         78.45153       44.85789        0.98267
H         78.05567       45.31051       -1.42318
H         77.36765       43.67746       -1.66248
N         75.31494       44.18822        1.25737
C         73.95248       44.71273        1.34403
C         73.42930       44.98365       -0.06381
O         73.00792       46.09032       -0.37179
C         73.84561       45.94558        2.27421
C         74.37751       45.66564        3.68976
C         74.06897       46.83770        4.63356
C         74.65073       46.59830        6.03418
N         74.26389       47.66984        6.95276
H         75.45914       43.24292        1.63436
H         73.31322       43.91778        1.79073
H         72.76861       46.21647        2.34248
H         74.39401       46.81479        1.85211
H         75.47561       45.49619        3.63920
H         73.89354       44.75177        4.09888
H         72.96455       46.94744        4.71041
H         74.49259       47.78073        4.22380
H         75.76066       46.55071        5.96602
H         74.28176       45.62903        6.43672
H         74.58489       48.59660        6.58988
H         73.22431       47.67888        7.07085
H         74.70492       47.49881        7.88536
N         73.50411       43.99059       -0.99068
C         73.17162       44.13006       -2.40223
C         72.18854       43.02688       -2.76837
O         72.61494       42.01456       -3.30767
C         74.50722       44.02869       -3.18430
C         74.37947       44.06908       -4.68553
O         73.17766       44.11644       -5.28775
O         75.38710       44.02072       -5.37191
H         73.89627       43.08297       -0.69280
H         72.73476       45.12296       -2.64581
H         75.02835       43.08343       -2.91630
H         75.15350       44.87761       -2.86897
N         70.85941       43.08779       -2.46947
C         70.16780       44.22251       -1.88240
C         69.82448       45.33436       -2.86646
O         69.12836       46.24816       -2.44672
H         70.28889       42.24975       -2.65477
H         70.71148       44.60010       -0.99243
H         69.18212       43.85243       -1.52339
N         70.23164       45.33723       -4.17332
C         69.81271       46.35761       -5.13788
C         69.47933       45.71207       -6.48051
O         70.33683       45.07734       -7.07556
C         70.84231       47.50633       -5.21726
C         72.23399       47.11225       -5.62200
O         72.46013       46.69209       -6.74334
O         73.25548       47.28744       -4.76172
H         70.85015       44.58875       -4.50867
H         68.88649       46.85233       -4.76962
H         70.89993       47.96555       -4.20582
H         70.47285       48.28811       -5.91652
N         68.22066       45.80628       -7.00123
C         67.78980       45.17144       -8.24510
C         67.65626       43.65097       -8.17188
O         67.12931       43.07557       -9.11293
H         67.52072       46.37514       -6.50087
H         68.44611       45.47798       -9.08744
H         66.76722       45.54908       -8.46713
N         68.06485       42.94168       -7.08186
C         67.81530       41.51704       -6.85114
C         68.33746       40.57072       -7.92990
O         69.01886       40.98573       -8.85555
C         68.44772       41.10917       -5.48283
C         69.98911       41.21393       -5.50541
O         67.92768       41.92656       -4.46557
H         68.51363       43.45385       -6.31828
H         66.71307       41.37881       -6.80275
H         68.17810       40.05524       -5.25862
H         68.12444       41.47654       -3.60311
H         70.42333       40.55992       -6.29066
H         70.33087       42.25390       -5.69144
H         70.40458       40.87771       -4.53574
N         68.07933       39.23421       -7.79704
C         68.67273       38.18857       -8.62762
C         68.01105       38.13138      -10.00814
O         68.55003       37.47764      -10.88852
C         68.61250       36.81326       -7.86214
C         69.30573       36.93645       -6.46611
C         69.25948       35.66283       -8.66174
C         69.14863       35.70210       -5.57370
H         67.48450       38.94410       -7.00841
H         69.74962       38.43996       -8.76155
H         67.54044       36.56130       -7.70027
H         68.86234       37.76442       -5.88146
H         70.38561       37.16630       -6.59347
H         70.33409       35.87421       -8.84819
H         69.17179       34.69981       -8.12245
H         68.74361       35.48953       -9.62369
H         69.60096       35.90897       -4.58028
H         68.07204       35.47031       -5.42596
H         69.66641       34.81797       -5.99274
N         66.85193       38.80212      -10.27730
C         66.19968       38.80478      -11.58317
C         64.78386       38.28116      -11.46156
O         64.05432       38.72116      -10.58522
C         66.17139       40.23449      -12.15347
C         67.59171       40.73831      -12.42182
O         65.45715       40.23215      -13.36474
H         66.40012       39.35409       -9.53475
H         66.74913       38.17656      -12.31950
H         65.66542       40.89943      -11.41325
H         65.08909       41.14563      -13.48688
H         68.18900       40.75564      -11.48757
H         68.09691       40.07631      -13.15917
H         67.55319       41.76632      -12.83657
N         64.32145       37.37153      -12.36659
C         62.95927       36.84949      -12.38342
C         62.84374       35.79397      -13.47202
O         62.57016       34.64966      -13.13601
C         61.89717       37.98521      -12.54655
C         60.46371       37.45082      -12.66163
O         62.18929       38.78384      -13.66481
H         64.97499       37.04285      -13.09453
H         62.76367       36.34463      -11.41027
H         61.92745       38.61219      -11.62815
H         61.88603       39.70663      -13.45514
H         59.74922       38.30105      -12.70629
H         60.33683       36.85057      -13.58628
H         60.20958       36.82310      -11.78210
N         63.00126       36.10649      -14.79352
C         62.77066       35.13810      -15.85606
C         63.89668       35.16121      -16.87397
O         64.16250       36.20593      -17.45329
C         61.39261       35.43846      -16.46701
C         60.89633       34.33620      -17.42032
C         59.40448       34.49459      -17.77902
C         58.47084       34.25209      -16.56978
N         57.06486       34.37472      -16.94778
H         63.18562       37.08336      -15.06438
H         62.69032       34.11591      -15.42713
H         61.37022       36.43190      -16.96782
H         60.71016       35.48253      -15.60004
H         61.02792       33.33459      -16.95500
H         61.51079       34.36795      -18.34617
H         59.15693       33.73476      -18.55204
H         59.22716       35.50258      -18.21190
H         58.66342       34.97865      -15.75568
H         58.65256       33.22973      -16.16790
H         56.87107       35.34606      -17.28340
H         56.82664       33.68277      -17.69395
H         56.47088       34.18548      -16.10732
N         64.57057       34.01420      -17.17478
C         65.59425       33.93687      -18.21106
C         66.85277       34.72566      -17.85020
O         67.17788       35.62773      -18.60905
C         65.88213       32.46091      -18.58054
C         66.83535       32.32383      -19.77556
C         66.93922       30.88707      -20.20339
O         66.60218       30.55741      -21.32963
O         67.39695       29.95405      -19.34674
H         64.28244       33.14301      -16.70354
H         65.15872       34.37879      -19.13728
H         64.90869       32.00117      -18.86380
H         66.28700       31.88405      -17.72638
H         67.84561       32.69782      -19.50388
H         66.45049       32.92824      -20.62630
N         67.64792       34.48431      -16.76395
C         67.42029       33.49562      -15.73074
H         66.47520       32.94443      -15.84681
H         68.26254       32.77155      -15.72312
H         67.38352       34.00553      -14.74557
H         68.49666       35.06162      -16.65262
Ca        73.03612       43.96706       -7.53462
O         74.71699       42.78448       -9.84488
H         75.58326       42.31632       -9.74393
H         74.51778       42.73860      -10.81352
O         71.57983       45.39244       -9.94392
H         71.32747       46.19723       -9.42504
H         70.78030       44.80966       -9.90408
O         72.11270       41.56438       -9.00378
H         71.35446       42.11294       -9.32682
H         71.72347       40.67371       -8.81750
O         74.88292       46.04339       -8.76665
H         75.77484       45.83658       -8.38989
H         74.84343       45.52666       -9.61024
O         74.31202       41.28913       -6.66654
H         74.60456       40.93758       -7.54465
H         73.46146       40.81789       -6.47974

Ca 1.0



