%chk=apoCaM-CA-Ng.loop4.water3.frame168.chk
%nprocshared=20
%mem=10GB
%nosave
#b3lyp/svp scf=(tight,noincore,xqc) Test 
#IOP(5/87=12) Density=Current Pop=(MK,readradii) iop(6/33=2) iop(6/42=6)

apoCaM-CA-Ng.loop4.water3.frame168 

   -3  1 
C         62.26426       60.88998       12.90271
C         61.23343       60.39572       11.88871
O         61.85176       59.38421       11.14879
H         63.13919       61.32577       12.37221
H         61.81887       61.64992       13.57530
H         62.61561       60.03240       13.51614
N         60.74859       61.48395       11.00710
C         59.28618       61.49137       10.71436
C         58.43157       60.54839       11.56825
O         57.82803       59.61954       11.05722
C         58.98942       61.54946        9.18720
C         59.47067       60.42540        8.30970
O         59.03144       59.17152        8.48952
O         60.25550       60.65626        7.40286
H         60.97684       62.41176       11.44032
H         58.88517       62.48878       11.01907
H         59.45832       62.48441        8.80416
H         57.89258       61.64868        9.03976
N         58.28429       60.83982       12.89626
C         57.44142       60.15594       13.87987
C         55.96617       60.20545       13.49618
O         55.26654       61.05673       14.02879
C         57.95809       58.73949       14.26654
C         57.07538       58.04802       15.34477
C         59.41989       58.80862       14.74265
C         56.95126       58.80627       16.67296
H         58.78918       61.66943       13.24703
H         57.53229       60.77305       14.80278
H         57.93978       58.08921       13.36653
H         57.49898       57.04219       15.55647
H         56.05154       57.89332       14.94363
H         60.06825       59.19399       13.93621
H         59.53385       59.47965       15.61882
H         59.78801       57.79749       15.01400
H         56.46279       59.79138       16.53235
H         56.32050       58.21922       17.37275
H         57.94156       58.95519       17.14741
N         55.40401       59.30323       12.63657
C         53.99501       59.35011       12.25792
C         53.13516       58.45805       13.16527
O         52.31154       59.03318       13.86416
C         53.81840       59.10944       10.74204
C         54.48927       60.15438        9.88525
O         54.41445       60.06879        8.67016
O         55.16576       61.18437       10.43132
H         55.98312       58.54457       12.25575
H         53.60907       60.38215       12.42922
H         52.73343       59.11618       10.50056
H         54.24600       58.13672       10.44530
N         53.21105       57.09512       13.27491
C         54.10203       56.23860       12.51019
C         53.97828       54.75625       12.85569
O         53.19552       54.41584       13.73149
H         52.56892       56.65929       13.95432
H         55.13869       56.55263       12.71536
H         53.83807       56.34871       11.45670
N         54.73081       53.77776       12.25534
C         55.71999       53.94091       11.18653
C         56.79452       54.93622       11.60064
O         56.94134       55.96086       10.95039
C         55.04608       54.27481        9.83397
C         53.99480       53.25657        9.48369
O         52.71512       53.64053        9.31321
O         54.29276       52.07935        9.35709
H         54.60511       52.81400       12.60472
H         56.21587       52.96025       11.01357
H         55.81687       54.28109        9.03343
H         54.58362       55.27430        9.83588
N         57.56049       54.75655       12.71434
C         57.56326       53.55970       13.53414
C         56.72350       53.72238       14.76886
O         56.09110       54.75274       14.95847
H         58.18816       55.51879       13.00496
H         58.61455       53.31961       13.80444
H         57.17513       52.68185       12.98232
N         56.67403       52.70246       15.66408
C         55.85602       52.71668       16.86684
C         56.69393       52.97040       18.11565
O         56.12064       53.04748       19.18964
C         54.94566       51.46010       16.92198
C         55.62986       50.09403       16.71740
C         56.68897       49.78816       17.73490
N         56.38231       49.67834       19.04662
O         57.83873       49.61714       17.36438
H         57.28638       51.88923       15.49584
H         55.16083       53.58598       16.85058
H         54.20564       51.55106       16.09590
H         54.37110       51.46421       17.87279
H         56.06876       50.05314       15.69735
H         54.85828       49.29526       16.75918
H         55.41374       49.80271       19.37355
H         57.11486       49.45730       19.73561
N         58.03174       53.24387       18.02598
C         58.83600       53.74659       19.14157
C         60.01931       52.84645       19.46541
O         60.78216       53.20474       20.35779
C         59.28847       55.20732       18.84591
C         58.07995       56.15318       18.83720
C         60.07000       55.35091       17.52870
H         58.49912       53.17979       17.11503
H         58.23569       53.78276       20.07679
H         59.94789       55.54075       19.67766
H         58.42096       57.19951       18.69939
H         57.37075       55.89275       18.02268
H         57.54323       56.09826       19.80857
H         59.42644       55.12365       16.65333
H         60.42768       56.39540       17.40817
H         60.94928       54.67497       17.52046
N         60.21441       51.65108       18.84700
C         61.23985       50.68604       19.22677
C         62.19794       50.40380       18.07470
O         63.39550       50.39344       18.31230
C         60.57137       49.35445       19.65356
C         59.76074       49.33428       20.93978
N         59.67335       50.38474       21.79150
O         59.17931       48.29877       21.22720
H         59.56431       51.36734       18.10090
H         61.85521       51.03622       20.08642
H         61.35999       48.58069       19.78220
H         59.90687       49.02869       18.82980
H         60.16801       51.26473       21.63055
H         59.11600       50.30624       22.65557
N         61.74565       50.10865       16.81782
C         62.60450       49.56830       15.76261
C         62.74670       50.52559       14.58925
O         61.76021       51.10909       14.16541
C         61.97111       48.26666       15.22209
C         61.56690       47.30080       16.30872
C         62.48866       46.42892       16.90985
C         60.22631       47.27492       16.72495
C         62.06420       45.54206       17.90992
C         59.80988       46.40813       17.73316
C         60.72260       45.53509       18.32727
O         60.29728       44.69626       19.29297
H         60.73993       50.18847       16.61410
H         63.61157       49.31459       16.16023
H         62.63261       47.76353       14.48258
H         61.05096       48.55189       14.66554
H         63.52515       46.42337       16.59622
H         59.50419       47.94449       16.27769
H         62.77569       44.86170       18.36043
H         58.77475       46.41905       18.05063
H         60.88879       44.06689       19.72807
N         63.94321       50.60925       13.93152
C         64.17116       51.31233       12.66642
C         64.12082       52.83111       12.75808
O         64.31488       53.46000       11.72591
C         63.23551       50.79930       11.54145
C         63.35688       49.28457       11.31860
C         62.52089       48.84599       10.14967
O         62.74840       49.28351        9.03241
O         61.52575       47.95606       10.32481
H         64.73469       50.05844       14.29662
H         65.20997       51.07830       12.33966
H         63.52126       51.30947       10.59470
H         62.17700       51.05960       11.75207
H         63.02274       48.74615       12.23015
H         64.41536       49.01398       11.11546
N         63.93770       53.50142       13.93251
C         63.95412       54.96082       14.01595
C         65.16201       55.46918       14.78851
O         65.30981       56.68049       14.88725
C         62.65467       55.46377       14.67682
C         61.36523       55.10142       13.92137
C         61.24676       55.79722       12.59374
O         60.27232       56.70358       12.40607
O         62.01043       55.54143       11.67769
H         63.81770       52.97419       14.80906
H         64.04876       55.41767       13.00976
H         62.68683       56.57090       14.78713
H         62.59743       55.02371       15.69574
H         60.51457       55.43579       14.55059
H         61.27371       54.00280       13.78789
N         66.08490       54.63154       15.34252
C         67.24339       55.13836       16.04520
H         67.86520       55.74921       15.35597
H         66.92304       55.76224       16.90646
H         67.85740       54.29403       16.42338
H         65.98399       53.60986       15.26938
Ca        60.20650       58.28602       10.10859
O         56.89841       57.34254        8.43345
H         56.49338       56.91705        7.63753
H         56.60137       58.28589        8.39013
O         59.22934       54.95052        9.02461
H         59.82535       54.27240        9.43135
H         58.98251       54.56922        8.14468
O         61.96277       56.73077        8.33110
H         61.94699       56.28626        7.44706
H         62.05889       57.69427        8.12266

Ca 1.0



