%chk=apoCaM-CA-Ng.loop3.water4.frame228.chk
%nprocshared=20
%mem=10GB
%nosave
#b3lyp/svp scf=(tight,noincore,xqc) Test 
#IOP(5/87=12) Density=Current Pop=(MK,readradii) iop(6/33=2) iop(6/42=6)

apoCaM-CA-Ng.loop3.water4.frame228 

   0  1 
C         54.69637       52.24336      103.40395
C         55.70689       53.18882      103.98284
O         55.36158       54.31569      104.30105
H         53.71090       52.74120      103.28269
H         55.04153       51.89174      102.40797
H         54.57892       51.36748      104.07563
N         57.00029       52.78919      104.12054
C         58.07903       53.61865      104.64732
C         58.22818       54.91646      103.85269
O         58.24128       55.99258      104.43552
C         57.91341       53.86682      106.16530
C         57.82836       52.58160      106.94370
O         56.74721       52.32335      107.70234
O         58.74321       51.77407      106.90641
H         57.24921       51.83728      103.80812
H         59.02763       53.04864      104.51944
H         57.00333       54.47285      106.35849
H         58.79446       54.43392      106.53886
N         58.38036       54.87371      102.49871
C         58.65429       56.05827      101.67738
C         57.51409       57.06214      101.58540
O         57.72457       58.09939      100.96886
C         58.93810       55.64720      100.21583
C         60.18364       54.78209      100.05810
C         60.41767       54.46818       98.57810
C         61.72765       53.69957       98.40410
N         61.97319       53.39389       96.99714
H         58.36098       53.94547      102.05017
H         59.54934       56.57160      102.09515
H         59.10628       56.56451       99.60694
H         58.04831       55.11766       99.80371
H         60.08055       53.82971      100.61865
H         61.05283       55.34567      100.46024
H         60.48002       55.41778       98.00066
H         59.56558       53.87026       98.18303
H         61.68705       52.75335       98.98775
H         62.56283       54.32286       98.79479
H         61.98897       54.27480       96.43311
H         62.90141       52.92095       96.91261
H         61.22889       52.75439       96.63558
N         56.26753       56.80939      102.06257
C         55.13078       57.65486      101.71747
C         55.33118       59.10313      102.14138
O         55.62651       59.36176      103.29958
C         53.83061       57.07270      102.28821
C         52.64746       57.79678      101.71517
O         51.77619       57.15416      100.92481
O         52.49128       58.98790      101.91670
H         56.09447       55.94140      102.58320
H         55.02332       57.61545      100.60954
H         53.83886       57.13573      103.39129
H         53.75594       56.00302      101.98883
N         55.15812       60.10034      101.22270
C         55.34726       61.51333      101.50150
C         54.43001       62.02792      102.58723
O         54.93581       62.45020      103.61781
H         54.89410       59.84399      100.25999
H         55.16395       62.10152      100.57527
H         56.40601       61.66995      101.79908
N         53.07229       62.05858      102.42931
C         52.18891       62.57097      103.47923
C         52.12744       61.64862      104.70667
O         51.46854       62.00555      105.67358
C         50.76008       62.84572      102.96035
C         49.98882       61.58939      102.65976
N         48.96533       61.21976      103.46069
O         50.29446       60.89229      101.70553
H         52.67395       61.76081      101.52837
H         52.58442       63.56506      103.78614
H         50.77200       63.51183      102.06977
H         50.22908       63.40307      103.76360
H         48.70345       61.77925      104.28595
H         48.45474       60.35161      103.27293
N         52.78371       60.45326      104.74075
C         52.77358       59.54523      105.87112
C         51.45918       58.81582      106.01589
O         50.85853       58.86481      107.07907
H         53.35724       60.16502      103.94457
H         53.06841       60.08433      106.79747
H         53.53730       58.75688      105.68895
N         50.99694       58.05353      104.98423
C         49.83772       57.17285      105.05566
C         48.78362       57.56362      104.04281
O         49.11942       57.81009      102.89183
C         50.23753       55.71732      104.74781
C         51.15866       55.10828      105.77465
C         50.64876       54.19472      106.71112
C         52.52817       55.41272      105.79538
C         51.49179       53.59992      107.65146
C         53.37497       54.80618      106.72768
C         52.85710       53.89661      107.65982
O         53.65839       53.30088      108.56426
H         51.52913       58.05797      104.10598
H         49.38331       57.17982      106.07141
H         50.68205       55.61330      103.73202
H         49.29255       55.12894      104.74012
H         49.59470       53.94752      106.71894
H         52.94454       56.09998      105.08131
H         51.08223       52.90306      108.37080
H         54.43230       55.03909      106.72173
H         54.60835       53.47630      108.60115
N         47.46337       57.54500      104.39405
C         46.38532       57.79341      103.44408
C         46.05827       59.26988      103.44187
O         46.14053       59.87982      102.39066
C         45.15577       56.84006      103.66925
C         44.10219       56.88819      102.52049
C         44.42309       57.07666      105.00648
C         44.62759       56.47041      101.14737
H         47.22106       57.28402      105.35960
H         46.76059       57.52188      102.43766
H         45.54879       55.79972      103.69555
H         43.65564       57.89247      102.42018
H         43.27990       56.18165      102.76973
H         43.61787       56.32302      105.13742
H         45.10223       56.98000      105.87457
H         43.93876       58.07146      105.03914
H         43.78706       56.46244      100.42027
H         45.37649       57.18709      100.76708
H         45.06727       55.45245      101.19253
N         45.73227       59.93540      104.58763
C         45.39928       61.36102      104.60251
C         44.09601       61.67747      103.86044
O         43.80149       62.84984      103.67564
C         45.35210       61.87955      106.04273
O         44.37624       61.18297      106.77158
H         45.76348       59.41929      105.47868
H         46.22042       61.90895      104.08802
H         45.14806       62.97608      106.02791
H         46.34589       61.72476      106.51923
H         43.93326       61.83923      107.36730
N         43.31005       60.68579      103.34619
C         42.19777       60.87662      102.42392
C         42.66308       61.68458      101.22392
O         42.00981       62.63851      100.82435
C         40.96246       61.45286      103.12026
H         43.56252       59.71445      103.52906
H         41.90926       59.86789      102.04895
H         41.15851       62.47014      103.51438
H         40.11570       61.49720      102.40098
H         40.66408       60.78757      103.95884
N         43.85484       61.36810      100.64679
C         44.45080       62.07864       99.52668
C         44.88069       61.08542       98.46845
O         44.91234       59.89488       98.75421
C         45.66697       62.86514      100.02618
H         44.39151       60.59534      101.05394
H         43.71620       62.78923       99.09112
H         46.41674       62.18124      100.48214
H         46.14766       63.42324       99.19604
H         45.34737       63.59384      100.80249
N         45.19258       61.49512       97.20015
C         45.63492       60.57982       96.14397
C         44.62966       59.45199       95.87448
O         44.97193       58.54773       95.12453
C         47.01135       59.98609       96.51654
C         48.11252       61.05404       96.66454
C         49.31006       60.41230       97.29179
O         50.38116       60.34287       96.71101
O         49.14042       59.86639       98.50924
H         45.11458       62.49699       96.96981
H         45.77485       61.14192       95.19495
H         47.34979       59.26188       95.74241
H         46.90044       59.42048       97.46019
H         47.78749       61.86754       97.34660
H         48.34989       61.49320       95.67033
N         43.38393       59.42533       96.43992
C         42.46133       58.31829       96.29522
H         41.53362       58.67018       95.80061
H         42.89021       57.47920       95.70952
H         42.20411       57.93217       97.30571
H         43.04839       60.21165       97.01069
Ca        50.42015       58.50906       99.75553
O         48.98199       56.07002      100.15263
H         48.12803       55.59874       99.98788
H         49.49717       55.46612      100.74401
O         51.82811       57.19691       97.63949
H         51.20108       56.60128       97.15928
H         51.50234       58.10718       97.43069
O         52.53376       60.35826       99.26377
H         52.76235       59.99927       98.37106
H         52.65053       61.33644       99.17782
O         47.46241       58.72191      100.26407
H         47.28398       59.68955      100.15288
H         47.02873       58.29594       99.48406

Ca 1.0



