%chk=apoCaM-CA-Ng.loop4.water5.frame629.chk
%nprocshared=20
%mem=10GB
%nosave
#b3lyp/svp scf=(tight,noincore,xqc) Test 
#IOP(5/87=12) Density=Current Pop=(MK,readradii) iop(6/33=2) iop(6/42=6)

apoCaM-CA-Ng.loop4.water5.frame629 

   -3  1 
C          2.58384       51.13326       -2.36652
C          3.76477       52.04397       -2.52223
O          3.79110       52.84836       -3.44183
H          1.83258       51.31539       -3.16337
H          2.91785       50.07564       -2.41573
H          2.10734       51.31535       -1.37898
N          4.78103       51.97692       -1.61947
C          5.95970       52.83617       -1.61664
C          5.55583       54.29879       -1.50946
O          6.04696       55.12766       -2.26698
C          6.85741       52.60650       -2.84914
C          7.28019       51.18534       -3.05164
O          8.46704       50.90019       -3.02744
O          6.38430       50.24414       -3.40550
H          4.70178       51.29185       -0.85069
H          6.55021       52.58029       -0.70787
H          7.76853       53.23565       -2.73204
H          6.33963       52.93223       -3.77629
N          4.60808       54.67999       -0.61117
C          4.14732       56.06448       -0.51956
C          5.23721       56.94483        0.10226
O          6.11710       56.39199        0.74846
C          2.78978       56.16184        0.24614
C          2.89884       55.66281        1.71389
C          1.69904       55.41567       -0.55109
C          1.61565       55.86146        2.52058
H          4.16412       53.94532       -0.04592
H          3.95721       56.39870       -1.55735
H          2.47945       57.22117        0.28099
H          3.70011       56.23483        2.22772
H          3.16198       54.58728        1.75823
H          1.64131       55.82447       -1.58309
H          1.91074       54.32824       -0.61581
H          0.69774       55.55783       -0.09938
H          0.78236       55.25659        2.10978
H          1.78619       55.52740        3.56571
H          1.32875       56.93367        2.53057
N          5.29069       58.30798       -0.01933
C          4.40425       59.13378       -0.83501
C          4.47645       58.75925       -2.30491
O          3.42689       58.59347       -2.91275
C          4.64306       60.65484       -0.61207
C          6.01059       61.23677       -0.87985
O          6.95659       60.54861       -1.21713
O          6.19489       62.55876       -0.70780
H          6.04955       58.78764        0.48856
H          3.35748       58.99983       -0.50312
H          4.40522       60.88262        0.44926
H          3.91241       61.20568       -1.24419
N          5.66790       58.54661       -2.93402
C          5.75644       58.15582       -4.32744
C          5.25832       59.23208       -5.25990
O          4.88696       60.31363       -4.82269
H          6.54689       58.60184       -2.40587
H          5.16482       57.22667       -4.48007
H          6.81512       57.93921       -4.58830
N          5.21948       58.97594       -6.59439
C          4.73162       59.93394       -7.58143
C          3.26583       60.32695       -7.39348
O          2.83865       61.23661       -8.09153
C          5.00796       59.42419       -9.02451
C          4.61198       57.98690       -9.29245
O          3.34285       57.56929       -9.17434
O          5.46680       57.17911       -9.61950
H          5.57266       58.06018       -6.91023
H          5.31135       60.87678       -7.46161
H          6.10491       59.48944       -9.19215
H          4.52443       60.09736       -9.76587
N          2.43196       59.73088       -6.48578
C          1.04396       60.14278       -6.30349
C          0.15703       59.85897       -7.50398
O         -1.01720       60.19174       -7.44508
H          2.77553       58.97143       -5.88327
H          1.01622       61.22815       -6.06255
H          0.61178       59.59170       -5.43971
N          0.63931       59.22930       -8.61537
C         -0.11781       58.90647       -9.81491
C         -1.17853       57.84135       -9.57412
O         -1.89576       57.53151      -10.51614
C         -0.65769       60.18546      -10.49970
C          0.49257       61.17380      -10.79443
C          0.07957       62.38640      -11.58871
N          1.00374       63.32614      -11.89727
O         -1.07557       62.52890      -11.96237
H          1.61664       58.95505       -8.64110
H          0.58464       58.44745      -10.54745
H         -1.42961       60.68406       -9.87742
H         -1.12734       59.88932      -11.46337
H          1.28703       60.64999      -11.37002
H          0.92295       61.52574       -9.83508
H          1.98241       63.22181      -11.58876
H          0.74490       64.16022      -12.44537
N         -1.29779       57.18292       -8.37777
C         -2.27652       56.12537       -8.14010
C         -1.62694       54.77750       -7.83462
O         -2.37184       53.81869       -7.69756
C         -3.25627       56.52356       -6.99892
C         -2.56141       56.66309       -5.63189
C         -4.00512       57.81753       -7.34391
H         -0.66592       57.41770       -7.60153
H         -2.88728       55.96460       -9.05594
H         -4.01710       55.71674       -6.90505
H         -3.31307       56.89091       -4.84676
H         -2.06255       55.71306       -5.34898
H         -1.80774       57.47702       -5.63573
H         -3.30300       58.67315       -7.42787
H         -4.54591       57.70212       -8.30704
H         -4.74983       58.04969       -6.55313
N         -0.27228       54.61224       -7.70737
C          0.33406       53.31406       -7.40613
C          1.25449       52.87684       -8.52637
O          1.51144       53.64251       -9.44332
C          1.11673       53.38355       -6.07891
C          0.21306       53.69010       -4.91241
N          0.40798       54.79349       -4.15345
O         -0.70036       52.92456       -4.64239
H          0.36118       55.41526       -7.82057
H         -0.44693       52.52853       -7.31844
H          1.91665       54.15239       -6.16521
H          1.60776       52.40818       -5.87221
H          1.17431       55.45064       -4.35858
H         -0.21172       54.99107       -3.35375
N          1.75580       51.60491       -8.52080
C          2.64677       51.10487       -9.57015
C          2.64306       49.57232       -9.59402
O          2.07504       48.95788       -8.70693
C          4.04737       51.74233       -9.34602
C          5.01746       51.69095      -10.50440
C          5.80806       50.55913      -10.76021
C          5.17381       52.82824      -11.31874
C          6.72093       50.55908      -11.82217
C          6.08310       52.82768      -12.37689
C          6.85841       51.69512      -12.63545
O          7.73455       51.71506      -13.66015
H          1.44558       50.98041       -7.76406
H          2.21943       51.42930      -10.54499
H          4.52566       51.36375       -8.41592
H          3.87690       52.82122       -9.14811
H          5.72677       49.68196      -10.13349
H          4.58817       53.72176      -11.13653
H          7.32370       49.67977      -12.00944
H          6.18570       53.71162      -12.99405
H          8.29631       50.95696      -13.87408
N          3.19277       48.88654      -10.63434
C          3.19049       47.42993      -10.73531
C          4.62539       46.94262      -10.85558
O          5.03958       46.60249      -11.95601
C          2.35124       46.99211      -11.95837
C          0.86567       47.34080      -11.79798
C          0.06800       46.81872      -12.95882
O          0.29618       47.21241      -14.09162
O         -0.90619       45.91129      -12.75342
H          3.59914       49.41520      -11.41752
H          2.72245       46.93541       -9.86155
H          2.43088       45.88562      -12.05660
H          2.75127       47.45830      -12.88668
H          0.73155       48.44092      -11.72793
H          0.48250       46.87623      -10.86279
N          5.48690       46.87615       -9.79890
C          5.16295       47.12146       -8.39145
C          4.21644       46.04805       -7.87988
O          4.51738       44.87164       -8.03557
C          6.44730       47.03527       -7.53944
C          7.45657       48.14900       -7.85685
C          8.77333       47.83074       -7.20615
O          9.75427       47.62872       -7.90349
O          8.89138       47.71976       -5.86967
H          6.45009       46.57739      -10.02195
H          4.73216       48.13627       -8.25393
H          6.91763       46.04411       -7.72886
H          6.19326       47.09811       -6.45845
H          7.06653       49.13349       -7.51825
H          7.62603       48.20695       -8.95235
N          3.07131       46.38369       -7.22310
C          2.13604       45.41070       -6.69430
H          1.13875       45.57172       -7.15392
H          2.44987       44.36496       -6.89584
H          2.05076       45.54382       -5.59548
H          2.85421       47.37578       -7.06355
Ca         7.40452       48.49322       -4.36874
O          4.41554       46.98343       -4.10454
H          4.06009       47.52616       -3.35637
H          4.16476       46.05278       -3.87746
O          7.35493       45.14905       -4.79521
H          7.93434       45.09135       -5.59628
H          7.60421       44.35962       -4.25382
O         10.29682       46.57657       -3.63460
H         10.92384       47.02567       -4.25658
H         10.82354       45.83646       -3.24328
O          6.61101       45.62501       -1.71676
H          5.88432       45.06762       -2.09468
H          6.85952       45.16901       -0.87423
O          9.13060       48.10334       -1.12572
H          8.98919       48.96304       -0.65512
H         10.11216       48.04322       -1.24077

Ca 1.0



