%chk=apoCaM-CA-Ng.loop1.water3.frame1258.chk
%nprocshared=20
%mem=10GB
%nosave
#b3lyp/svp scf=(tight,noincore,xqc) Test 
#IOP(5/87=12) Density=Current Pop=(MK,readradii) iop(6/33=2) iop(6/42=6)

apoCaM-CA-Ng.loop1.water3.frame1258 

   0  1 
C         27.56290       26.14112       19.37235
C         28.48666       26.95104       20.22785
O         28.23133       28.13160       20.42308
H         26.72639       26.76859       18.99595
H         28.12210       25.73821       18.50129
H         27.14775       25.30203       19.96649
N         29.61249       26.38024       20.74544
C         30.58947       27.12662       21.52972
C         31.83361       27.33609       20.70414
O         32.93559       26.98771       21.10685
C         30.81686       26.49026       22.91908
C         31.38121       25.09044       22.92906
O         31.66267       24.50288       21.89671
O         31.58702       24.47884       24.11046
H         29.80645       25.39419       20.51822
H         30.21579       28.14488       21.71519
H         29.84152       26.47356       23.45104
H         31.50766       27.14308       23.49675
N         31.69158       27.94841       19.49922
C         32.79476       28.26451       18.61126
C         33.71287       29.25871       19.29491
O         34.88805       28.94113       19.41175
C         32.28914       28.71321       17.21756
C         31.43216       27.58661       16.59768
C         30.89406       27.91718       15.20709
C         29.96140       26.78531       14.74132
N         29.41354       27.05595       13.41539
H         30.73945       28.21566       19.21229
H         33.37481       27.33270       18.41636
H         33.16492       28.90751       16.55995
H         31.69185       29.64448       17.27396
H         30.55426       27.38796       17.24463
H         32.03421       26.65270       16.53809
H         31.74121       28.03725       14.49747
H         30.31709       28.86645       15.24873
H         29.12013       26.68191       15.46479
H         30.51824       25.82168       14.71964
H         28.76749       26.27682       13.15155
H         28.87547       27.95256       13.42556
H         30.18693       27.10969       12.71418
N         33.30060       30.42467       19.87974
C         31.94703       30.99614       19.90257
C         31.31758       30.87214       21.28134
O         31.97447       30.44388       22.21855
C         31.96387       32.45599       19.37424
C         33.25360       33.17869       19.70583
O         33.66173       33.39089       20.97626
O         34.01050       33.46088       18.79104
H         34.02591       30.92723       20.41334
H         31.25672       30.42270       19.26269
H         31.05897       33.02146       19.69067
H         31.92514       32.39458       18.26388
N         29.97623       31.09429       21.42974
C         29.25419       30.75989       22.64722
C         29.49182       31.69611       23.79557
O         30.05970       32.76533       23.61923
H         29.42171       31.37460       20.60605
H         29.52104       29.73346       22.96062
H         28.15917       30.76424       22.45097
N         29.06155       31.32187       25.03160
C         29.11337       32.16004       26.22493
C         27.77709       32.07118       26.96530
O         26.97863       31.20522       26.62433
C         30.26237       31.66800       27.12754
C         31.59482       31.86835       26.46539
O         32.38999       30.81249       26.21153
O         31.96791       32.99271       26.16844
H         28.68766       30.36271       25.13293
H         29.29376       33.21430       25.93208
H         30.11395       30.59066       27.36181
H         30.29371       32.21540       28.08392
N         27.40983       32.89125       27.99072
C         28.12734       34.05796       28.47645
C         28.18009       35.13758       27.42828
O         27.14855       35.44793       26.84946
H         26.50259       32.70259       28.44579
H         29.12396       33.80785       28.88229
H         27.54407       34.47855       29.32422
N         29.33846       35.81286       27.18444
C         29.38795       36.94831       26.27028
C         29.43166       36.49212       24.81759
O         29.91815       35.41088       24.52529
C         30.52816       37.92211       26.66755
C         30.58737       39.18014       25.79163
O         31.76770       37.26543       26.63858
H         30.16831       35.58533       27.75315
H         28.45328       37.53716       26.41515
H         30.30224       38.24674       27.71278
H         32.34903       37.72302       27.30241
H         29.61189       39.71104       25.80743
H         31.36604       39.87095       26.17793
H         30.84709       38.92339       24.74409
N         28.91254       37.30551       23.85637
C         28.87061       37.04794       22.42219
C         30.32369       36.89961       21.86914
O         30.51678       35.54014       21.61354
C         27.93416       35.84079       22.02765
C         26.58614       35.85852       22.78098
C         27.72277       35.83577       20.49337
C         25.72251       34.62649       22.47661
H         28.51121       38.20504       24.16186
H         28.40888       37.96239       21.98640
H         28.41672       34.88547       22.33151
H         26.01863       36.78398       22.55153
H         26.79582       35.83200       23.87171
H         27.14729       34.95218       20.15693
H         27.18785       36.75694       20.17734
H         28.68299       35.79128       19.94226
H         26.29005       33.69187       22.68269
H         24.81763       34.63608       23.11726
H         25.38176       34.61782       21.42177
N         30.49070       37.62766       20.60502
C         31.85417       37.61056       20.02778
C         32.70300       38.87039       20.29618
O         33.80596       38.91743       19.76881
C         31.71927       37.36199       18.50086
C         30.84526       38.40751       17.79680
O         31.15278       36.09510       18.27900
H         30.02701       38.56209       20.56344
H         32.43780       36.75085       20.42857
H         32.72863       37.40289       18.02415
H         31.90259       35.44709       18.21308
H         30.80752       38.19164       16.70791
H         29.80349       38.37241       18.18220
H         31.25185       39.42934       17.94298
N         32.28623       39.92868       21.05812
C         33.06225       41.16998       21.17945
C         34.40945       40.95195       21.86192
O         34.44783       40.57769       23.02555
C         32.24002       42.25129       21.92081
C         33.01622       43.56799       22.07484
O         31.06467       42.49361       21.19011
H         31.36895       39.88944       21.52006
H         33.23760       41.55599       20.14946
H         31.98272       41.86365       22.93457
H         30.42324       42.93128       21.80777
H         33.92329       43.41958       22.69749
H         33.31819       43.96363       21.08193
H         32.38086       44.32156       22.58531
N         35.56083       41.18536       21.16302
C         36.92106       41.02214       21.66901
C         37.10482       39.66799       22.31405
O         37.58453       39.59445       23.44004
C         37.35808       42.15662       22.62614
C         37.29020       43.54740       21.98615
C         38.08195       44.56222       22.82520
C         38.03395       45.96185       22.20129
N         38.94433       46.87406       22.89412
H         35.47858       41.44912       20.16936
H         37.60589       41.06579       20.79211
H         38.42207       41.95157       22.88554
H         36.76472       42.15083       23.56753
H         36.22826       43.85468       21.87534
H         37.75978       43.51083       20.97945
H         39.14225       44.22491       22.85788
H         37.69377       44.60542       23.86677
H         36.99312       46.35164       22.25426
H         38.33589       45.90621       21.13203
H         38.87127       47.82389       22.46342
H         38.70125       46.93666       23.90899
H         39.92975       46.53701       22.78876
N         36.68539       38.54107       21.67856
C         36.76118       37.25007       22.33888
C         35.81409       36.24749       21.70050
O         34.92487       35.80423       22.41019
C         38.22573       36.76216       22.47880
C         38.43270       35.96496       23.77705
C         39.85836       35.52036       23.97533
O         40.19940       34.89465       25.11734
O         40.71404       35.72961       23.12874
H         36.20160       38.64358       20.77802
H         36.36817       37.42546       23.36864
H         38.90485       37.63699       22.55606
H         38.55099       36.18316       21.59804
H         37.76455       35.07975       23.80468
H         38.17532       36.63285       24.63034
N         35.84909       35.84816       20.39330
C         36.80569       36.24270       19.37951
H         37.81965       35.88685       19.62715
H         36.52854       35.76539       18.41439
H         36.80326       37.33286       19.20831
H         35.11018       35.20958       20.08193
Ca        32.37935       34.58614       22.33096
O         34.56690       34.59775       25.41670
H         34.56639       34.11209       26.27985
H         34.79065       35.53152       25.65637
O         32.90569       37.49266       23.73872
H         33.78356       37.75246       24.11482
H         32.61667       36.72491       24.29261
O         33.95173       31.89476       23.63959
H         34.16298       30.93404       23.52810
H         34.14490       32.07697       24.59188

Ca 1.0



