%chk=apoCaM-CA-Ng.loop1.water1.frame925.chk
%nprocshared=20
%mem=10GB
%nosave
#b3lyp/svp scf=(tight,noincore,xqc) Test 
#IOP(5/87=12) Density=Current Pop=(MK,readradii) iop(6/33=2) iop(6/42=6)

apoCaM-CA-Ng.loop1.water1.frame925 

   0  1 
C         17.24083       27.11581       25.93868
C         18.31421       26.07678       25.78814
O         19.39387       26.41028       25.32161
H         16.31390       26.68282       26.37081
H         17.59630       27.92867       26.60496
H         16.99578       27.54157       24.94260
N         18.07612       24.78384       26.14648
C         19.04259       23.70588       25.98791
C         18.55581       22.75090       24.90300
O         17.47776       22.19677       25.00287
C         19.41489       23.06563       27.35620
C         18.38734       23.07485       28.48278
O         17.25721       22.33589       28.50249
O         18.62098       23.76573       29.46280
H         17.14517       24.53729       26.51634
H         20.00696       24.10573       25.60312
H         20.23632       23.71230       27.74487
H         19.87194       22.06360       27.21132
N         19.29391       22.60061       23.76573
C         18.86320       21.84200       22.59321
C         18.83650       20.33972       22.85234
O         19.84805       19.78207       23.25369
C         19.79126       22.20511       21.41617
C         19.35632       21.59982       20.07260
C         20.08548       22.25364       18.88392
C         21.61422       22.09890       18.92168
N         22.22872       22.77030       17.77628
H         20.17889       23.12726       23.69398
H         17.85041       22.19912       22.30052
H         20.83683       21.91190       21.65204
H         19.75060       23.31325       21.31348
H         18.27178       21.79650       19.92423
H         19.51289       20.49953       20.08052
H         19.83508       23.33777       18.86993
H         19.69863       21.80207       17.94480
H         21.87949       21.01921       18.90910
H         22.02376       22.55355       19.84877
H         22.00420       23.79234       17.79834
H         23.26664       22.65533       17.82692
H         21.88181       22.35343       16.88240
N         17.70277       19.62199       22.59324
C         17.56491       18.17490       22.78271
C         17.29112       17.51153       21.44242
O         16.49057       18.05016       20.69487
C         16.38614       17.87854       23.72827
C         16.58208       18.56492       25.04212
O         15.69317       19.48605       25.44719
O         17.57676       18.34473       25.71532
H         16.88279       20.12805       22.22379
H         18.47631       17.74738       23.24757
H         16.30169       16.78270       23.89507
H         15.43670       18.23755       23.27138
N         17.87197       16.34424       21.03904
C         18.77603       15.55590       21.85813
C         19.29171       14.36371       21.08697
O         19.91232       14.56909       20.05303
H         17.62493       15.98880       20.10164
H         18.24804       15.23009       22.78176
H         19.65634       16.16919       22.14142
N         19.11660       13.08813       21.54058
C         19.67513       11.94144       20.83161
C         18.97390       11.75273       19.49557
O         17.77794       11.49234       19.47828
C         19.57510       10.65754       21.69048
C         20.29898        9.46734       21.10263
O         20.89532        9.54393       20.03920
O         20.30864        8.30285       21.77822
H         18.62609       12.93817       22.43641
H         20.76107       12.13664       20.68379
H         18.50857       10.39052       21.85470
H         20.03852       10.85894       22.68054
N         19.67595       11.84770       18.33053
C         19.09573       11.58800       17.02292
C         18.05591       12.58934       16.56393
O         17.50964       12.36592       15.49280
H         20.68641       12.04702       18.37218
H         18.64163       10.57267       17.03462
H         19.90493       11.58890       16.26166
N         17.71821       13.69953       17.28483
C         16.67170       14.62702       16.86144
C         15.53030       14.56318       17.85588
O         15.66001       13.91385       18.88692
C         17.24191       16.06287       16.72024
C         18.40319       16.10773       15.72367
O         16.23963       16.94032       16.27448
H         18.18794       13.89430       18.17898
H         16.25257       14.31620       15.87952
H         17.61251       16.38908       17.71982
H         16.49002       17.85254       16.57574
H         18.06351       15.77277       14.72032
H         18.78592       17.14729       15.64201
H         19.23729       15.45879       16.06251
N         14.35049       15.18683       17.59181
C         13.21739       15.09617       18.49694
C         12.65689       13.68699       18.40558
O         12.58707       13.01961       19.42817
C         12.17586       16.22619       18.24476
C         12.84311       17.63078       18.10745
C         11.14265       16.24798       19.38908
C         13.79890       18.00994       19.24207
H         14.24431       15.70464       16.70975
H         13.58568       15.27460       19.53311
H         11.63526       16.03725       17.29188
H         12.05651       18.40985       18.01702
H         13.42944       17.67404       17.16701
H         10.39861       17.05611       19.22527
H         10.59930       15.28290       19.44887
H         11.63515       16.42568       20.36980
H         13.28495       18.04496       20.22278
H         14.63462       17.28401       19.28832
H         14.24102       19.00812       19.03869
N         12.35236       13.13317       17.18868
C         12.00444       11.71963       17.02667
C         10.66263       11.55719       16.33569
O         10.10692       12.53186       15.84648
C         13.11775       10.98694       16.22678
C         14.50036       11.20553       16.84967
O         12.85275        9.60837       16.18922
H         12.45766       13.70845       16.33819
H         11.92143       11.24096       18.02644
H         13.13112       11.39524       15.18840
H         13.42795        9.21971       15.47933
H         14.51815       10.85801       17.90398
H         15.27202       10.65520       16.27199
H         14.76484       12.27687       16.80985
N         10.05857       10.33359       16.31503
C          8.73641       10.10288       15.75561
C          7.73566       10.13474       16.88836
O          6.82842       10.95387       16.83004
C          8.68235        8.82599       14.86633
C          8.96048        7.49449       15.57435
O          9.60319        8.96263       13.81288
H         10.50531        9.56112       16.82802
H          8.46281       10.93903       15.07126
H          7.64491        8.73877       14.45847
H          9.09139        9.20800       12.99787
H          8.90570        6.66457       14.83784
H          9.97126        7.47937       16.03113
H          8.19108        7.28271       16.34024
N          7.86113        9.32051       17.97743
C          6.94524        9.37584       19.10799
C          7.67456        9.60614       20.42334
O          8.89695        9.58959       20.47404
C          6.11549        8.07400       19.19145
C          6.95120        6.80079       19.43384
C          6.02705        5.62788       19.79513
C          6.77785        4.31201       20.05190
N          7.30305        3.72640       18.81786
H          8.63876        8.64707       18.01943
H          6.22683       10.21439       18.97948
H          5.52280        7.94720       18.25943
H          5.38898        8.18596       20.02274
H          7.64198        6.95169       20.29160
H          7.55506        6.58138       18.53119
H          5.25885        5.46915       19.00810
H          5.50525        5.90344       20.73849
H          6.05963        3.58988       20.49926
H          7.59854        4.47306       20.78651
H          7.76608        2.81705       19.04581
H          6.51595        3.53912       18.15419
H          8.00428        4.35572       18.36878
N          6.93304        9.76710       21.55338
C          7.46931        9.78614       22.90632
C          8.48732       10.90128       23.13775
O          9.59126       10.56717       23.54475
C          6.29206        9.76357       23.91097
C          6.73091        9.64346       25.37440
C          5.54390        9.36513       26.25547
O          5.19945       10.22923       27.22807
O          4.89324        8.34256       26.10068
H          5.90784        9.80987       21.44643
H          7.99999        8.81899       23.06619
H          5.68828        8.86239       23.65723
H          5.62718       10.64175       23.79645
H          7.22869       10.58654       25.68713
H          7.44773        8.80323       25.49161
N          8.26404       12.22718       22.90930
C          7.04794       12.78334       22.36367
H          6.19300       12.60263       23.03832
H          7.16388       13.88312       22.25492
H          6.85250       12.36321       21.35630
H          9.03282       12.88732       23.10827
Ca        16.41305       20.94767       26.97534
O         16.59754       19.04897       29.33114
H         15.62441       18.87814       29.39704
H         16.94719       18.29129       28.79813

Ca 1.0



