%chk=apoCaM-CA-Ng.loop2.water6.frame1259.chk
%nprocshared=20
%mem=10GB
%nosave
#b3lyp/svp scf=(tight,noincore,xqc) Test 
#IOP(5/87=12) Density=Current Pop=(MK,readradii) iop(6/33=2) iop(6/42=6)

apoCaM-CA-Ng.loop2.water6.frame1259 

   -2  1 
C         44.48578       46.75720       21.22175
C         45.34474       47.61821       20.33506
O         46.17760       47.06345       19.63270
H         43.41742       46.83172       20.95782
H         44.77035       45.68950       21.10765
H         44.63538       47.04135       22.28352
N         45.27038       48.98120       20.31326
C         44.33823       49.78845       21.10768
C         44.81797       51.23471       21.23474
O         45.83692       51.58993       20.65768
C         42.90995       49.73401       20.49464
C         42.80983       50.23109       19.07521
O         41.61606       50.19411       18.45259
O         43.78532       50.65713       18.47663
H         45.95851       49.46045       19.71204
H         44.31694       49.39848       22.14722
H         42.20686       50.32532       21.11654
H         42.53056       48.70008       20.49620
N         44.11124       52.13715       21.98155
C         44.47118       53.54835       22.09684
C         44.53785       54.14956       20.70072
O         45.56828       54.66786       20.29200
C         45.77313       53.70793       22.89973
H         43.25044       51.82822       22.45720
H         43.67219       54.07057       22.66953
H         46.01043       54.78362       23.03810
H         45.65070       53.24696       23.90402
H         46.63153       53.21873       22.39546
N         43.46234       54.00515       19.87926
C         43.47946       54.32204       18.45567
C         43.64077       55.80876       18.20315
O         42.89867       56.59510       18.77577
C         42.19458       53.78400       17.79661
C         42.26497       53.84908       16.29602
O         43.26993       53.23369       15.64355
O         41.40180       54.42879       15.65906
H         42.62268       53.54787       20.27014
H         44.32431       53.76220       17.99591
H         41.30224       54.31502       18.18936
H         42.08522       52.71566       18.06114
N         44.58996       56.26330       17.33206
C         44.80933       57.67777       17.07164
C         43.62938       58.39974       16.44217
O         43.65046       59.62200       16.46117
H         45.20560       55.58433       16.85961
H         45.69356       57.81829       16.41295
H         45.03728       58.16072       18.04631
N         42.57663       57.74282       15.86727
C         41.37914       58.43240       15.38140
C         40.12984       57.97887       16.13397
O         39.07866       58.56487       15.91074
C         41.17335       58.23673       13.86128
C         42.25647       58.87611       13.02413
N         43.52071       58.39502       13.01620
O         41.97666       59.83635       12.32095
H         42.61729       56.71851       15.77991
H         41.46141       59.52500       15.56913
H         40.21422       58.73196       13.58735
H         41.07868       57.15983       13.60178
H         43.77903       57.56705       13.56957
H         44.24197       58.84185       12.43018
N         40.14720       56.94826       17.02832
C         38.97116       56.50688       17.75179
C         38.55410       57.49088       18.83022
O         39.22227       58.49903       19.01055
H         41.00454       56.41566       17.18809
H         39.20514       55.54767       18.26072
H         38.16230       56.31996       17.02475
N         37.47941       57.25797       19.64177
C         36.60017       56.09814       19.49847
C         35.81896       56.17063       18.19619
O         35.80291       57.20983       17.54956
C         35.61980       55.97229       20.69211
C         36.36461       55.67408       22.00087
O         34.87066       57.15503       20.81547
H         37.29661       57.93545       20.39825
H         37.23012       55.18109       19.47801
H         34.93419       55.11540       20.49715
H         34.12748       56.96405       21.44514
H         37.07399       56.48636       22.26050
H         35.63621       55.56287       22.83212
H         36.92718       54.72022       21.90761
N         35.18306       55.05878       17.73457
C         34.46746       54.99350       16.46674
C         33.03855       54.53273       16.74317
O         32.88989       53.47656       17.34304
C         35.18397       53.98369       15.51515
C         36.67569       54.32728       15.25777
C         34.43077       53.83692       14.18277
C         36.92935       55.64606       14.51704
H         35.24920       54.19196       18.29099
H         34.47534       55.97793       15.96675
H         35.17785       52.98508       16.00731
H         37.12904       53.50974       14.65541
H         37.21439       54.34681       16.22719
H         34.94013       53.10192       13.52468
H         33.41036       53.46021       14.37278
H         34.34962       54.80755       13.65060
H         36.53134       56.51232       15.08020
H         38.02386       55.78996       14.39411
H         36.47764       55.62986       13.50436
N         31.92104       55.19335       16.31584
C         31.91067       56.43029       15.54474
C         30.59928       56.55871       14.78368
O         29.54342       56.49706       15.39715
C         32.10455       57.63957       16.48055
C         32.13153       58.93209       15.70969
O         32.99236       59.12815       14.86644
O         31.20006       59.87673       15.94194
H         31.01379       54.74123       16.51295
H         32.72223       56.40666       14.78897
H         33.05695       57.54654       17.04139
H         31.27477       57.66812       17.22102
N         30.61137       56.76157       13.43214
C         29.40695       56.92586       12.62065
C         29.80812       57.19031       11.16559
O         30.56924       58.12584       10.95867
C         28.56599       58.14889       13.08636
C         27.23693       58.17349       12.36835
C         26.97777       59.11283       11.35703
C         26.24671       57.23040       12.70078
C         25.75376       59.09619       10.67910
C         25.02165       57.22487       12.02842
C         24.77703       58.15403       11.01477
H         31.52777       56.80929       12.96096
H         28.79300       56.00843       12.72472
H         29.14724       59.07727       12.89151
H         28.34295       58.14674       14.17106
H         27.72825       59.84151       11.07872
H         26.42554       56.49964       13.48023
H         25.56332       59.81100        9.88942
H         24.26449       56.49661       12.28997
H         23.83093       58.14273       10.48906
N         29.30377       56.49541       10.09521
C         28.26984       55.47371       10.16267
C         28.72627       54.12033       10.67552
O         27.88724       53.24099       10.80054
C         27.79117       55.34363        8.70681
C         28.10447       56.71998        8.14080
C         29.48661       56.94401        8.73066
H         27.44027       55.87822       10.77253
H         28.45263       54.63111        8.15989
H         26.74059       55.00156        8.59500
H         28.06367       56.78648        7.03319
H         27.40239       57.46458        8.58152
H         30.21875       56.27075        8.22925
H         29.82549       57.99761        8.62815
N         30.04237       53.85982       10.92763
C         30.54247       52.54565       11.32429
C         31.48023       52.00010       10.25488
O         31.94370       52.76477        9.42057
C         31.30438       52.68810       12.65725
C         30.40507       52.98782       13.86403
C         29.61928       51.78463       14.31342
O         29.84442       51.26211       15.53487
O         28.77748       51.27675       13.59163
H         30.73840       54.60732       10.79300
H         29.70740       51.82703       11.41012
H         32.02535       53.52452       12.52545
H         31.90539       51.79090       12.90344
H         29.73114       53.84523       13.65863
H         31.06949       53.26681       14.70286
N         31.80335       50.67520       10.17657
C         31.23856       49.64761       11.02956
H         30.13492       49.61544       10.90770
H         31.64096       48.65451       10.73905
H         31.49115       49.81658       12.09233
H         32.45367       50.37045        9.43559
Ca        42.87881       50.27473       15.65774
O         40.97975       47.93923       15.47278
H         40.97322       47.22592       16.15920
H         40.30210       48.59062       15.78426
O         43.85377       48.08383       13.71681
H         44.82961       47.92767       13.77555
H         43.45724       47.17786       13.67254
O         44.09096       47.84217       16.99927
H         45.01457       48.13784       17.19892
H         44.16745       46.86732       16.84618
O         45.67617       50.73030       14.76464
H         46.43805       50.80197       15.39263
H         46.09275       50.68127       13.86793
O         40.16869       51.51486       15.28071
H         40.29861       51.82799       14.35049
H         39.46405       52.10577       15.64679
O         42.66573       50.72722       12.71620
H         43.30776       51.47347       12.61069
H         41.81274       51.07746       12.35642

Ca 1.0



