%chk=apoCaM-CA-Ng.loop1.water5.frame598.chk
%nprocshared=20
%mem=10GB
%nosave
#b3lyp/svp scf=(tight,noincore,xqc) Test 
#IOP(5/87=12) Density=Current Pop=(MK,readradii) iop(6/33=2) iop(6/42=6)

apoCaM-CA-Ng.loop1.water5.frame598 

   0  1 
C         46.49042       90.24112      103.32684
C         45.46339       91.31807      103.51846
O         44.45101       91.28664      102.83230
H         47.35476       90.37645      104.00950
H         46.02983       89.25108      103.52954
H         46.85777       90.26050      102.27921
N         45.64581       92.30501      104.44511
C         44.64900       93.34951      104.67865
C         44.41333       94.19984      103.43768
O         45.15088       94.07804      102.46975
C         45.00459       94.22415      105.90136
C         46.24045       95.06427      105.70901
O         47.32786       94.54349      105.52091
O         46.15159       96.40655      105.76816
H         46.49614       92.27627      105.02567
H         43.69463       92.82797      104.91748
H         45.13812       93.57173      106.79129
H         44.15028       94.90189      106.11514
N         43.33725       95.03793      103.38848
C         42.90189       95.73217      102.17681
C         41.65871       96.57470      102.45794
O         40.72625       96.09744      103.08989
C         42.68990       94.68889      101.02670
C         41.74619       95.08864       99.87356
C         40.29511       94.72094      100.23302
C         39.27720       95.16154       99.19968
N         37.93319       94.79035       99.64646
H         42.74818       95.10935      104.23185
H         43.69302       96.43187      101.82589
H         42.34381       93.71074      101.42654
H         43.69376       94.50899      100.58563
H         41.99772       94.48354       98.97478
H         41.88636       96.16026       99.61188
H         39.98021       95.19260      101.16354
H         40.22513       93.61970      100.37271
H         39.49441       94.68644       98.22315
H         39.34509       96.26445       99.09868
H         37.22575       95.21118       99.01024
H         37.83188       93.74913       99.65064
H         37.74838       95.15465      100.60794
N         41.57851       97.84054      101.94912
C         40.37049       98.67401      101.97198
C         40.01362       99.07712      100.53040
O         40.84077       98.84593       99.65830
C         40.62307       99.92168      102.85541
C         41.55119      100.96646      102.21245
O         41.69282      102.07431      103.05561
O         42.83263      100.45802      101.97956
H         42.40527       98.20295      101.45484
H         39.53678       98.09232      102.41902
H         41.01775       99.60120      103.84484
H         39.66270      100.43280      103.04916
N         38.86898       99.71657      100.14253
C         37.67059       99.98185      100.91885
C         36.85124       98.73190      101.14378
O         37.34188       97.63147      100.94287
H         38.82241      100.02206       99.15817
H         37.02671      100.63606      100.28993
H         37.86369      100.54398      101.85091
N         35.54549       98.84755      101.51622
C         34.67179       97.70497      101.76091
C         34.54251       96.78664      100.54336
O         34.94710       95.63680      100.64578
C         33.27965       98.20385      102.22331
C         32.32991       97.07977      102.53197
O         31.28146       96.97628      101.91461
O         32.62360       96.19022      103.49874
H         35.16422       99.79851      101.64639
H         35.11705       97.11711      102.59573
H         32.83530       98.85377      101.43729
H         33.39554       98.82248      103.13944
N         33.90894       97.18333       99.40000
C         33.56736       96.23774       98.34090
C         34.69860       95.91386       97.38881
O         35.73701       96.54720       97.44004
H         33.51223       98.13317       99.35068
H         32.75558       96.67017       97.71701
H         33.16311       95.31053       98.80150
N         34.51130       94.94555       96.44090
C         35.43693       94.64783       95.33704
C         36.86146       94.31334       95.76083
O         37.10588       94.05213       96.92670
C         34.87197       93.51484       94.43613
C         34.67117       92.18887       95.19173
O         33.63662       93.91674       93.89815
H         33.61098       94.44528       96.47187
H         35.51355       95.57877       94.73340
H         35.60233       93.31385       93.61517
H         33.75253       94.01419       92.91693
H         33.92925       92.29144       96.01126
H         34.28903       91.41364       94.49461
H         35.62620       91.82789       95.62669
N         37.87091       94.36439       94.83452
C         39.29004       94.28121       95.18211
C         39.82128       95.67184       95.52766
O         40.81518       95.76059       96.23203
C         40.11996       93.64002       94.02747
C         39.56791       92.26137       93.58482
C         41.62363       93.53829       94.36220
C         39.59880       91.17570       94.66281
H         37.62793       94.65320       93.87354
H         39.39299       93.65725       96.09628
H         40.03340       94.30827       93.14098
H         40.16259       91.90600       92.71449
H         38.51966       92.37921       93.23701
H         42.06971       94.54041       94.52224
H         41.79619       92.93148       95.27492
H         42.17634       93.08331       93.51332
H         39.19698       90.23253       94.23712
H         40.63516       90.97890       95.00475
H         38.96797       91.45867       95.52957
N         39.17881       96.80076       95.10313
C         39.56261       98.14729       95.51314
C         39.84966       99.03552       94.31227
O         39.71303       98.61364       93.17520
C         38.42125       98.75717       96.38470
C         37.07403       98.88800       95.65438
O         38.25787       98.02616       97.57029
H         38.35385       96.71503       94.49825
H         40.48348       98.12590       96.13541
H         38.71123       99.78011       96.69489
H         38.08457       97.08433       97.32255
H         36.33184       99.36879       96.32526
H         37.17995       99.51559       94.74482
H         36.67230       97.89801       95.35918
N         40.20638      100.33009       94.54133
C         40.34280      101.35246       93.51489
C         41.70704      102.01815       93.59212
O         42.35151      102.16553       92.56032
C         39.19408      102.38043       93.70777
C         39.17161      103.46596       92.61901
O         39.20827      102.95231       94.99466
H         40.30582      100.62873       95.51815
H         40.20892      100.92170       92.49734
H         38.23512      101.82499       93.61023
H         39.86772      103.69348       95.00298
H         39.08399      103.00104       91.61453
H         38.29714      104.13253       92.77712
H         40.09477      104.08247       92.65120
N         42.20222      102.46653       94.77944
C         43.40252      103.27928       94.90213
C         43.86431      103.27608       96.34910
O         43.08571      103.61808       97.23203
C         43.06789      104.70443       94.41931
C         44.23033      105.69460       94.56185
C         43.79658      107.07963       94.06790
C         44.90274      108.12025       94.26713
N         44.46512      109.43442       93.79718
H         41.67437      102.26860       95.64168
H         44.21705      102.85161       94.27508
H         42.20415      105.08470       95.00972
H         42.76190      104.66153       93.35134
H         45.10560      105.33956       93.97524
H         44.52146      105.77033       95.63213
H         42.89751      107.40573       94.63646
H         43.53271      107.01888       92.98899
H         45.81357      107.81182       93.70803
H         45.15686      108.18495       95.34893
H         45.22955      110.12893       93.95806
H         44.24999      109.39617       92.77427
H         43.61431      109.74031       94.32375
N         45.13385      102.89478       96.66299
C         45.60891      102.78929       98.03428
C         44.85097      101.68145       98.76923
O         44.22273      102.00217       99.76638
C         47.14867      102.62638       98.06616
C         47.76460      102.42137       99.46300
C         47.52917      103.56194      100.41854
O         46.28677      103.86032      100.84232
O         48.47638      104.19620      100.85470
H         45.78749      102.67354       95.89473
H         45.40459      103.75829       98.54052
H         47.60338      103.53061       97.60406
H         47.46180      101.77420       97.43944
H         48.86116      102.29683       99.32304
H         47.37847      101.48376       99.91012
N         44.80070      100.37399       98.37104
C         45.44961       99.82360       97.20026
H         46.54818       99.87160       97.29739
H         45.18883       98.74842       97.10209
H         45.10554      100.33803       96.28059
H         44.23424       99.72041       98.93491
Ca        43.96071      102.00495      103.17996
O         43.00242      104.44171      101.31087
H         43.64702      105.05445      100.87591
H         42.49866      104.03755      100.56032
O         43.62371      104.27081      105.05337
H         43.77041      104.86861      104.27766
H         42.64944      104.09362      105.04900
O         46.23471      100.09180      101.85262
H         47.12863      100.39437      102.15300
H         46.31927       99.10875      101.77253
O         45.19461       99.67759      104.72221
H         45.16738      100.25400      105.52689
H         44.34573       99.16868      104.75088
O         46.72870      102.68751      104.09398
H         47.04507      102.25136      104.92459
H         47.31679      103.47621      103.98488

Ca 1.0



