%chk=apoCaM-CA-Ng.loop2.water4.frame334.chk
%nprocshared=20
%mem=10GB
%nosave
#b3lyp/svp scf=(tight,noincore,xqc) Test 
#IOP(5/87=12) Density=Current Pop=(MK,readradii) iop(6/33=2) iop(6/42=6)

apoCaM-CA-Ng.loop2.water4.frame334 

   -2  1 
C         76.48655       88.22239       65.34340
C         76.96406       89.08314       66.47755
O         76.19910       89.30821       67.40219
H         75.59900       88.69035       64.86716
H         77.27404       88.09134       64.57203
H         76.20311       87.22124       65.73152
N         78.23138       89.58559       66.48756
C         78.74518       90.42358       67.56737
C         78.00313       91.75013       67.59552
O         78.00350       92.45428       66.59443
C         80.25784       90.64883       67.38699
C         80.84844       91.40084       68.54714
O         80.76515       90.89413       69.79282
O         81.41477       92.46625       68.36566
H         78.86007       89.33967       65.70709
H         78.60841       89.87604       68.52714
H         80.45006       91.19104       66.43465
H         80.76423       89.66066       67.33135
N         77.32755       92.14156       68.71361
C         76.50317       93.34635       68.76683
C         75.39833       93.24313       67.73805
O         75.18989       94.18819       66.99188
C         75.89690       93.52557       70.16153
H         77.36725       91.53480       69.54707
H         77.12774       94.24703       68.56709
H         75.28781       94.45548       70.19213
H         75.25179       92.66343       70.43163
H         76.70899       93.62082       70.91386
N         74.71558       92.06621       67.59799
C         73.73186       91.77588       66.55991
C         72.38756       92.44189       66.84025
O         71.49892       92.35366       66.00547
C         74.31899       92.10049       65.15758
C         73.61409       91.43245       64.00593
O         73.99828       91.64533       62.86718
O         72.60744       90.56073       64.20818
H         74.96404       91.28864       68.22539
H         73.54968       90.67862       66.59055
H         75.37116       91.74185       65.11679
H         74.31532       93.19779       64.98922
N         72.14200       93.08271       68.02201
C         70.88235       93.73420       68.33405
C         69.68060       92.81394       68.46750
O         68.61020       93.35722       68.70436
H         72.87849       93.15007       68.73767
H         70.67434       94.49529       67.55097
H         70.98849       94.26748       69.30401
N         69.73840       91.45078       68.32990
C         68.54470       90.60684       68.40693
C         68.67577       89.53730       69.48900
O         69.78577       89.19433       69.87378
C         68.28060       89.99882       67.01520
C         66.95004       89.29536       66.92825
N         66.87807       87.99587       66.57331
O         65.92248       89.91348       67.16316
H         70.63700       90.99039       68.12784
H         67.66403       91.23358       68.66599
H         69.11707       89.31628       66.74360
H         68.26140       90.82128       66.26707
H         67.72466       87.46991       66.34491
H         65.97203       87.51770       66.51175
N         67.55394       88.99785       70.05007
C         67.54921       88.00440       71.11796
C         66.76116       86.78897       70.68954
O         65.62274       86.95845       70.27121
H         66.63499       89.33936       69.72877
H         67.04445       88.45103       72.00109
H         68.57790       87.71717       71.42511
N         67.29311       85.53047       70.76209
C         66.59181       84.34513       70.26331
C         67.32371       83.71061       69.08669
O         66.73672       82.85478       68.44318
C         66.32039       83.30479       71.38078
C         67.58073       82.59705       71.90319
O         65.60202       83.89110       72.43714
H         68.23543       85.41860       71.16596
H         65.59837       84.65319       69.87054
H         65.67734       82.50514       70.95037
H         66.22803       84.47048       72.94524
H         67.29827       81.85477       72.67916
H         68.07210       82.04129       71.08058
H         68.30071       83.31856       72.34016
N         68.58958       84.09266       68.73268
C         69.28223       83.60846       67.54193
C         69.45532       84.79585       66.61644
O         69.31570       85.91884       67.07643
C         70.63063       82.93552       67.94757
C         70.42257       81.76766       68.94755
C         71.46127       82.46388       66.74216
C         69.52752       80.63031       68.44201
H         69.08953       84.79668       69.28982
H         68.64317       82.88263       66.99820
H         71.25131       83.69365       68.47722
H         69.98447       82.16842       69.88273
H         71.41387       81.34265       69.21720
H         72.40162       81.98626       67.09073
H         70.89718       81.74021       66.11937
H         71.76585       83.32589       66.11535
H         69.93868       80.17202       67.52065
H         69.45843       79.84368       69.22183
H         68.49889       80.98707       68.24237
N         69.70136       84.63102       65.28412
C         69.69397       85.75563       64.35988
C         68.73153       85.46521       63.19950
O         69.06869       85.67796       62.04471
C         71.14075       86.05839       63.94055
C         71.27678       87.28757       63.09663
O         70.31461       87.99769       62.84216
O         72.45789       87.55647       62.52318
H         69.84458       83.68564       64.90112
H         69.31162       86.66223       64.87313
H         71.52943       85.18698       63.37248
H         71.77158       86.19942       64.84609
N         67.50233       84.94359       63.46596
C         66.44833       84.67862       62.47807
C         66.92722       83.83520       61.30391
O         67.55016       82.80973       61.54271
C         65.28415       83.93083       63.16331
C         64.68904       84.75510       64.27513
C         64.83215       84.35310       65.61408
C         64.00308       85.94465       63.98113
C         64.30364       85.13664       66.64242
C         63.46762       86.72009       65.01198
C         63.61844       86.31724       66.34182
H         67.30697       84.71533       64.45149
H         66.06941       85.64753       62.10410
H         65.67951       82.96869       63.56126
H         64.48248       83.68604       62.43183
H         65.36846       83.44518       65.86238
H         63.88216       86.26850       62.95448
H         64.43058       84.83121       67.67186
H         62.94077       87.63585       64.77891
H         63.21332       86.92484       67.13964
N         66.62703       84.15965       60.00102
C         67.02782       83.34618       58.86540
C         68.47795       83.58786       58.48768
O         69.01234       82.80250       57.71663
C         66.06782       83.79193       57.75576
C         65.90758       85.26841       58.05958
C         65.78320       85.26550       59.58332
H         66.87011       82.26311       59.06813
H         66.38465       83.54259       56.71960
H         65.07557       83.32025       57.94031
H         66.86356       85.76766       57.78438
H         65.07984       85.78697       57.53063
H         66.11544       86.25198       59.96955
H         64.74176       85.04674       59.90883
N         69.17302       84.66628       58.95925
C         70.57465       84.89755       58.63621
C         71.48075       83.92488       59.38688
O         72.67600       83.93042       59.12684
C         70.96296       86.38579       58.88712
C         70.13917       87.30244       57.95188
C         70.47665       88.77821       57.88827
O         69.90735       89.44697       57.04119
O         71.36296       89.40681       58.68952
H         68.68695       85.36456       59.53727
H         70.71976       84.71417       57.54705
H         72.03902       86.51691       58.63922
H         70.80265       86.64961       59.95326
H         69.05832       87.21303       58.19060
H         70.29449       86.92284       56.91907
N         70.99331       83.04397       60.31196
C         71.83426       82.07842       60.98414
H         72.62894       82.59675       61.55893
H         71.22276       81.47135       61.68714
H         72.29215       81.39281       60.23932
H         69.99523       83.03571       60.55777
Ca        72.13820       88.76004       60.68042
O         70.64383       92.20059       62.89607
H         70.62146       93.15591       63.15334
H         70.24006       91.72409       63.66437
O         69.61380       91.45472       60.31345
H         69.13746       90.70651       59.87494
H         68.89651       92.07554       60.59689
O         72.68350       92.01459       60.01726
H         72.10135       92.70405       59.60962
H         73.56726       92.15336       59.59313
O         75.08334       89.03443       60.81388
H         74.93488       88.36954       61.53260
H         74.74591       88.59270       59.99399

Ca 1.0



