%chk=apoCaM-CA-Ng.loop4.water3.frame42.chk
%nprocshared=20
%mem=10GB
%nosave
#b3lyp/svp scf=(tight,noincore,xqc) Test 
#IOP(5/87=12) Density=Current Pop=(MK,readradii) iop(6/33=2) iop(6/42=6)

apoCaM-CA-Ng.loop4.water3.frame42 

   -3  1 
C         35.04071       58.53066       47.89875
C         33.80951       59.19791       47.36889
O         32.75693       59.04251       47.96666
H         35.79359       59.30501       48.15791
H         34.80453       57.95315       48.81980
H         35.45897       57.84364       47.13658
N         33.87681       60.00461       46.26983
C         32.74488       60.78019       45.77668
C         32.22869       61.69500       46.85950
O         31.17408       61.43112       47.41038
C         31.68115       59.95899       44.99172
C         31.17905       58.62304       45.50198
O         30.43483       58.43855       46.61320
O         31.41488       57.63566       44.82332
H         34.79223       60.14170       45.81492
H         33.11118       61.48153       44.99094
H         32.17177       59.72460       44.01830
H         30.81884       60.61735       44.74833
N         32.98959       62.78147       47.21549
C         32.68888       63.81466       48.21182
C         31.59815       64.77770       47.73824
O         31.87866       65.96186       47.61106
C         32.41883       63.22460       49.62212
C         32.20278       64.32116       50.70287
C         33.53754       62.25743       50.04694
C         33.40520       65.24197       50.94765
H         33.89814       62.88711       46.73659
H         33.61219       64.42908       48.29854
H         31.48707       62.63796       49.57733
H         31.95048       63.82366       51.66405
H         31.33301       64.95282       50.42308
H         34.52606       62.75932       50.06381
H         33.32253       61.85226       51.05521
H         33.60210       61.39947       49.34768
H         33.66678       65.82159       50.04008
H         33.15353       65.96885       51.74779
H         34.29088       64.66451       51.27987
N         30.34393       64.34941       47.44076
C         29.27673       65.20807       46.95964
C         28.73857       66.15514       48.03374
O         28.69719       67.34083       47.73864
C         28.13135       64.36356       46.35009
C         28.55417       63.55892       45.13916
O         29.70012       63.59566       44.71604
O         27.64425       62.79795       44.50229
H         30.12541       63.35843       47.51393
H         29.66004       65.82019       46.10933
H         27.31643       65.04332       46.01945
H         27.72545       63.66822       47.10806
N         28.23828       65.78348       49.25788
C         28.30875       64.47340       49.89076
C         26.99853       63.72890       49.81737
O         26.14198       64.15383       49.05398
H         27.80073       66.52135       49.83107
H         28.63000       64.61601       50.94361
H         29.06313       63.85509       49.40328
N         26.73535       62.57196       50.50213
C         27.48228       61.97534       51.62766
C         28.97473       61.75362       51.37239
O         29.36566       61.73051       50.21734
C         26.80231       60.59630       51.94991
C         27.03716       59.64398       50.79774
O         26.11976       59.26914       50.08681
O         28.31542       59.30882       50.51966
H         25.83945       62.12028       50.25491
H         27.38793       62.68086       52.48047
H         25.71406       60.75670       52.11516
H         27.18339       60.10376       52.85873
N         29.87145       61.45306       52.36406
C         29.59470       61.46009       53.79532
C         29.67363       62.84539       54.38163
O         30.06105       63.77667       53.68880
H         30.83092       61.20700       52.08040
H         30.37453       60.86424       54.31880
H         28.63610       60.98195       54.03375
N         29.34064       63.05038       55.68971
C         29.52320       64.34410       56.34017
C         30.99390       64.62199       56.64104
O         31.28847       65.73836       57.04531
C         28.70848       64.44464       57.65243
C         27.19578       64.51061       57.38765
C         26.42459       64.76509       58.65968
N         26.39597       63.84923       59.65499
O         25.81047       65.81420       58.78894
H         28.95670       62.26135       56.23380
H         29.15540       65.14221       55.65699
H         28.97973       65.39432       58.16449
H         28.96361       63.60179       58.33160
H         26.82860       63.57995       56.90594
H         27.00836       65.35973       56.69304
H         26.89112       62.95125       59.56141
H         25.86312       64.03533       60.51828
N         31.96405       63.66720       56.50676
C         33.37285       63.90252       56.82389
C         33.83536       63.08987       58.02987
O         34.98654       63.25401       58.41128
C         34.28014       63.65920       55.58438
C         34.02376       64.71986       54.50705
C         34.12925       62.24888       54.98839
H         31.69977       62.71983       56.20484
H         33.52939       64.95991       57.13346
H         35.33880       63.78549       55.90440
H         34.72993       64.57744       53.66253
H         32.98259       64.66302       54.12624
H         34.19894       65.73561       54.92366
H         33.11248       62.09269       54.57017
H         34.85568       62.10914       54.15971
H         34.32834       61.47505       55.75866
N         32.99906       62.26001       58.72476
C         33.38941       61.59798       59.96785
C         33.27676       60.08144       59.87460
O         34.24118       59.41563       60.22581
C         32.62592       62.20155       61.16734
C         31.13584       61.97614       61.19903
N         30.56231       61.37150       62.26455
O         30.43346       62.37790       60.28470
H         32.02922       62.14319       58.40704
H         34.45348       61.82547       60.20586
H         32.80526       63.29969       61.17188
H         33.07621       61.79572       62.09979
H         31.13022       61.04227       63.05951
H         29.54079       61.24717       62.30410
N         32.16327       59.46143       59.37813
C         32.03796       58.00470       59.27809
C         32.06521       57.52974       57.83602
O         32.04060       58.35032       56.93787
C         30.67014       57.54749       59.84422
C         30.46689       57.71772       61.31882
C         29.38432       58.47056       61.79925
C         31.30623       57.05655       62.22711
C         29.14089       58.55470       63.17221
C         31.06217       57.14287       63.59942
C         29.97408       57.88874       64.07631
O         29.71374       57.96254       65.39635
H         31.38887       60.03801       59.01788
H         32.87960       57.49772       59.79729
H         30.52405       56.46261       59.66373
H         29.86757       58.07295       59.27719
H         28.71591       58.97699       61.11291
H         32.13481       56.45689       61.87173
H         28.29578       59.12859       63.53098
H         31.71019       56.61721       64.28844
H         30.25190       57.49654       66.05171
N         32.04996       56.17656       57.59940
C         31.80602       55.42380       56.36272
C         32.84525       55.55639       55.25680
O         33.45316       54.55123       54.91295
C         30.33627       55.54521       55.88096
C         29.91733       56.83715       55.16466
C         28.45126       56.81639       54.84163
O         27.64184       57.77352       55.33469
O         27.98600       55.94096       54.12922
H         32.14356       55.57529       58.43336
H         31.86070       54.35244       56.67417
H         29.68258       55.39071       56.76898
H         30.14390       54.70576       55.17563
H         30.47801       56.93967       54.21385
H         30.10075       57.71795       55.80017
N         33.07567       56.73430       54.61982
C         33.97627       56.88561       53.48545
C         35.37311       56.43096       53.85454
O         35.89629       55.54126       53.19750
C         34.00620       58.35672       52.99619
C         32.63737       58.97692       52.64014
C         31.91777       58.28738       51.51886
O         31.66137       58.90304       50.49890
O         31.49336       57.01632       51.64994
H         32.56712       57.55594       54.93123
H         33.61283       56.24815       52.65070
H         34.66956       58.42614       52.10596
H         34.44237       58.99287       53.79659
H         32.82944       60.02900       52.35301
H         31.95908       59.01391       53.51413
N         36.02082       56.97833       54.92061
C         37.34037       56.56280       55.35039
H         38.02389       57.43633       55.33643
H         37.27870       56.16781       56.38613
H         37.76920       55.77018       54.70140
H         35.55092       57.71088       55.47322
Ca        29.39755       58.94049       48.56412
O         27.69322       61.00995       47.20580
H         26.76925       60.81586       46.90809
H         28.25693       60.80433       46.41798
O         27.06096       57.67644       47.10805
H         26.79628       58.36744       47.76454
H         26.97861       56.82371       47.60381
O         30.64114       56.08566       48.37017
H         30.92713       56.76991       49.02442
H         31.33138       56.12440       47.66174

Ca 1.0



