%chk=apoCaM-CA-Ng.loop3.water5.frame1040.chk
%nprocshared=20
%mem=10GB
%nosave
#b3lyp/svp scf=(tight,noincore,xqc) Test 
#IOP(5/87=12) Density=Current Pop=(MK,readradii) iop(6/33=2) iop(6/42=6)

apoCaM-CA-Ng.loop3.water5.frame1040 

   0  1 
C         41.08637       49.05031       40.46563
C         42.37364       49.76221       40.17730
O         42.54351       50.88198       40.63869
H         40.23916       49.65193       40.07593
H         41.06020       48.04974       39.98479
H         40.97166       48.91924       41.56181
N         43.33842       49.16649       39.42220
C         44.60855       49.81269       39.12279
C         44.39376       51.12251       38.36818
O         44.71807       52.16329       38.92074
C         45.59702       48.84884       38.41264
C         45.14831       48.28023       37.08531
O         45.78673       48.51086       36.07156
O         44.06851       47.47959       37.00761
H         43.16540       48.20996       39.08666
H         45.09180       50.06166       40.09625
H         45.81037       47.99080       39.08490
H         46.54688       49.39743       38.28011
N         43.86709       51.15245       37.10962
C         43.64097       52.37703       36.34384
C         44.71700       52.49087       35.27666
O         44.44616       52.49962       34.08425
C         42.21040       52.37474       35.77777
C         41.15633       52.54916       36.88285
C         39.74964       52.33608       36.31329
C         38.66189       52.64954       37.34777
N         37.33884       52.31030       36.82314
H         43.64090       50.26423       36.64406
H         43.76096       53.28783       36.97440
H         42.05194       51.42228       35.22619
H         42.08280       53.21871       35.06393
H         41.25514       53.57511       37.30449
H         41.31568       51.81457       37.70236
H         39.66623       51.27328       35.99593
H         39.59047       52.98753       35.42628
H         38.69801       53.73476       37.59479
H         38.84005       52.07076       38.28079
H         37.15974       52.81603       35.92527
H         37.27807       51.27818       36.66204
H         36.60981       52.58479       37.52021
N         45.99570       52.64005       35.70714
C         47.18389       52.83483       34.87837
C         48.23902       51.75298       35.13721
O         49.31077       51.81944       34.55166
C         47.74337       54.25584       35.15353
C         48.07765       54.55545       36.59932
O         47.96856       53.61092       37.55549
O         48.38147       55.69414       36.91761
H         46.11480       52.64652       36.72538
H         46.91782       52.79223       33.79941
H         46.95149       54.97746       34.85109
H         48.63513       54.45394       34.52124
N         48.00427       50.73585       36.01562
C         48.95060       49.69344       36.37899
C         49.19464       48.67217       35.29219
O         48.78936       48.88600       34.15825
H         47.10413       50.69803       36.50426
H         48.48786       49.12805       37.20861
H         49.90139       50.12999       36.75064
N         49.79706       47.47554       35.56598
C         50.19034       47.03468       36.90602
C         49.05370       46.23620       37.53063
O         48.50938       45.37568       36.85402
C         51.45388       46.15651       36.85176
C         52.68612       46.88571       36.37316
N         53.87076       46.23510       36.33241
O         52.63103       48.06019       36.03729
H         49.84859       46.78161       34.80247
H         50.45527       47.89883       37.54369
H         51.27419       45.27040       36.20502
H         51.66831       45.79606       37.88290
H         53.93670       45.24787       36.62142
H         54.72456       46.71982       36.01956
N         48.63520       46.42091       38.81829
C         49.29848       47.31435       39.76133
C         48.66620       47.31982       41.13694
O         47.63823       46.68335       41.34063
H         47.84344       45.84151       39.13964
H         49.27730       48.35553       39.38376
H         50.35458       46.98227       39.87054
N         49.24900       48.02628       42.14940
C         48.68783       48.09962       43.49564
C         48.45261       49.55154       43.90262
O         48.92222       50.45003       43.21489
C         49.65597       47.39585       44.48014
C         49.04553       47.17934       45.84252
C         49.57162       47.80669       46.98435
C         47.92675       46.33923       45.97495
C         48.97331       47.60847       48.23412
C         47.33265       46.14239       47.22191
C         47.85053       46.78095       48.35644
O         47.27533       46.61050       49.56362
H         50.13888       48.51769       41.95999
H         47.70871       47.57611       43.50955
H         50.59340       47.99320       44.54600
H         49.93021       46.39332       44.08414
H         50.43303       48.45813       46.90764
H         47.51207       45.83776       45.10948
H         49.37604       48.10623       49.10712
H         46.46754       45.49645       47.30224
H         46.48936       46.05799       49.68355
N         47.73250       49.85944       45.01880
C         47.55272       51.22736       45.50586
C         48.89451       51.85442       45.85104
O         49.67093       51.26220       46.58695
C         46.56943       51.33429       46.71283
C         45.11683       51.09421       46.23131
C         46.94467       50.42773       47.90390
C         44.06654       51.36842       47.30901
H         47.29236       49.08572       45.53303
H         47.09965       51.83493       44.69351
H         46.61454       52.39086       47.06292
H         44.99385       50.05950       45.84670
H         44.90539       51.80024       45.39699
H         46.29800       50.63947       48.77774
H         46.82096       49.35777       47.64983
H         47.98431       50.60477       48.23870
H         44.14675       50.64235       48.14236
H         44.18046       52.40109       47.70394
H         43.05213       51.26957       46.86941
N         49.22786       53.06362       45.31639
C         50.51987       53.71756       45.52382
C         50.68399       54.93312       44.61836
O         49.71574       55.40200       44.03574
C         50.72831       54.11595       46.99728
O         49.72331       55.00858       47.39743
H         48.53285       53.50891       44.70135
H         51.30404       52.99202       45.21414
H         51.72308       54.59624       47.12293
H         50.70456       53.20851       47.63843
H         49.75158       55.03649       48.38940
N         51.92665       55.45716       44.40704
C         52.20678       56.51157       43.43684
C         51.56905       57.84788       43.78703
O         51.51813       58.70748       42.91830
C         51.83607       56.04232       42.01763
H         52.72991       55.04136       44.90268
H         53.30436       56.69016       43.41396
H         52.14944       56.79662       41.26516
H         52.36805       55.09368       41.78907
H         50.74700       55.87653       41.89866
N         51.14147       58.13114       45.05520
C         50.61717       59.43024       45.46505
C         49.33512       59.75114       44.72484
O         49.27723       60.74228       44.00852
C         51.68736       60.52809       45.30542
H         51.22263       57.41232       45.78873
H         50.37124       59.38819       46.54936
H         51.29731       61.49554       45.68746
H         52.59368       60.26163       45.88836
H         51.98224       60.67858       44.24698
N         48.24871       58.94108       44.87201
C         46.98379       59.17889       44.18858
C         45.90092       59.47087       45.20178
O         45.35681       60.56641       45.16701
C         46.64282       57.98955       43.26857
C         47.72676       57.86420       42.19007
C         47.44146       56.80873       41.17394
O         47.41187       55.50982       41.51254
O         47.33015       57.11909       39.99835
H         48.32312       58.11984       45.49297
H         47.05423       60.07794       43.53505
H         45.66541       58.18564       42.77485
H         46.56382       57.04321       43.84862
H         48.70795       57.63191       42.65502
H         47.81391       58.83821       41.66072
N         45.54497       58.55654       46.14625
C         44.54320       58.82092       47.16139
H         43.70981       58.09634       47.05903
H         45.00192       58.70966       48.16595
H         44.12383       59.84752       47.08971
H         46.00457       57.63429       46.15873
Ca        47.67079       54.21391       39.69811
O         44.30655       54.91859       39.67414
H         43.76985       54.33065       40.26340
H         44.42690       55.75022       40.19694
O         47.97584       51.03541       39.88241
H         47.76263       50.91654       40.84145
H         48.90234       50.69975       39.79059
O         50.59766       54.43804       39.50598
H         50.44131       54.64375       38.55093
H         50.79050       53.46725       39.52341
O         45.75896       52.58089       42.17563
H         45.67124       51.68309       42.58435
H         46.04726       53.16731       42.91967
O         49.35416       52.94199       41.89490
H         48.78914       53.57223       42.40458
H         50.23488       52.97584       42.34419

Ca 1.0



