%chk=apoCaM-CA-Ng.loop2.water3.frame634.chk
%nprocshared=20
%mem=10GB
%nosave
#b3lyp/svp scf=(tight,noincore,xqc) Test 
#IOP(5/87=12) Density=Current Pop=(MK,readradii) iop(6/33=2) iop(6/42=6)

apoCaM-CA-Ng.loop2.water3.frame634 

   -2  1 
C         -6.07447       22.69014       -4.82482
C         -7.56522       22.58300       -5.00007
O         -8.01591       21.67936       -5.68922
H         -5.59144       22.83336       -5.81298
H         -5.80210       23.54550       -4.17071
H         -5.67166       21.76306       -4.36985
N         -8.39715       23.48651       -4.40971
C         -9.84898       23.45592       -4.55800
C        -10.43054       22.19221       -3.94943
O        -10.21910       21.94563       -2.77169
C        -10.47533       24.69429       -3.88411
C        -11.97102       24.72593       -4.04898
O        -12.76860       24.71607       -2.96405
O        -12.46847       24.75783       -5.16351
H         -7.97431       24.24469       -3.85140
H        -10.09477       23.51075       -5.64236
H        -10.05261       25.61436       -4.34319
H        -10.22302       24.69943       -2.80088
N        -11.23841       21.38099       -4.68713
C        -11.86390       20.18066       -4.13842
C        -10.85213       19.03289       -4.05745
O         -9.85315       19.09746       -4.75974
C        -13.04483       19.78785       -5.04466
H        -11.46876       21.67039       -5.65068
H        -12.27996       20.43046       -3.13906
H        -13.59961       18.90271       -4.68620
H        -13.76659       20.63253       -5.09107
H        -12.68953       19.57159       -6.07415
N        -11.03450       17.91173       -3.28992
C        -12.12333       17.73536       -2.33566
C        -11.87848       18.49894       -1.00220
O        -10.93445       19.52518       -1.15981
C        -12.40503       16.24013       -2.05567
C        -11.28512       15.47448       -1.39366
O        -10.23158       16.01301       -1.09255
O        -11.45561       14.16567       -1.12742
H        -10.35146       17.14750       -3.39426
H        -13.05184       18.10160       -2.80675
H        -12.64206       15.74199       -3.02099
H        -13.30280       16.15792       -1.40497
N        -13.15355       19.08840       -0.56189
C        -13.12379       19.58779        0.81383
C        -14.26741       20.56642        1.04297
O        -15.00562       20.84318        0.10747
H        -13.93396       18.39332       -0.63206
H        -12.17305       20.13021        1.01084
H        -13.20701       18.72436        1.51096
N        -14.48811       21.17251        2.24673
C        -13.70635       20.91681        3.44814
C        -12.91130       22.15884        3.82561
O        -13.10596       23.21764        3.24356
C        -14.66094       20.40196        4.54999
C        -13.96806       19.90021        5.79185
N        -14.25832       20.42009        7.00715
O        -13.15424       18.99252        5.70204
H        -15.25950       21.85633        2.31449
H        -12.95853       20.12542        3.25035
H        -15.22837       19.53949        4.13585
H        -15.39578       21.19767        4.80209
H        -14.95596       21.17114        7.10994
H        -13.79281       20.05924        7.85329
N        -11.90118       22.05259        4.72536
C        -10.96474       23.13138        5.01186
C         -9.87231       22.60666        5.91223
O         -9.66172       23.13553        6.99501
H        -11.74432       21.13111        5.15487
H        -11.49559       23.99066        5.47630
H        -10.49571       23.46663        4.06118
N         -9.20201       21.48140        5.53583
C         -8.33024       20.70154        6.40756
C         -7.21451       20.06336        5.57803
O         -7.10731       20.38273        4.39918
C         -9.18692       19.60703        7.10274
C        -10.31882       20.18497        7.96154
O         -9.73958       18.74434        6.13874
H         -9.48755       21.04230        4.64617
H         -7.87709       21.33916        7.19939
H         -8.53303       19.04770        7.80950
H         -9.46478       17.81985        6.37262
H         -9.91144       20.88343        8.72303
H        -11.06632       20.72129        7.34507
H        -10.85194       19.36298        8.48208
N         -6.38227       19.10926        6.09670
C         -5.38909       18.41398        5.28319
C         -5.79666       16.95906        5.11859
O         -5.81643       16.21909        6.09422
C         -3.96313       18.50441        5.89723
C         -2.93690       17.79791        4.96259
C         -3.57352       19.97359        6.13842
C         -1.54923       17.62863        5.57618
H         -6.48520       18.81872        7.08032
H         -5.33697       18.87581        4.27321
H         -3.97570       17.98241        6.88055
H         -2.85598       18.35341        4.00570
H         -3.28125       16.76971        4.72409
H         -3.56137       20.53666        5.18078
H         -4.29654       20.45845        6.82762
H         -2.57783       20.05161        6.61766
H         -1.07689       18.60237        5.80804
H         -1.61985       17.01702        6.50101
H         -0.89625       17.09519        4.85235
N         -6.08282       16.48135        3.87694
C         -6.30884       15.08505        3.55146
C         -5.25574       14.57207        2.56723
O         -5.27904       13.38086        2.29083
C         -7.74350       14.88759        3.01930
C         -8.05088       15.71346        1.79826
O         -7.42987       15.54466        0.76184
O         -9.02902       16.63812        1.84326
H         -6.10843       17.14215        3.09957
H         -6.21028       14.46194        4.46822
H         -8.45260       15.17289        3.82668
H         -7.91437       13.81425        2.78510
N         -4.28145       15.37746        2.02474
C         -3.16777       14.82761        1.26092
C         -2.61499       15.86168        0.27276
O         -1.49881       16.32101        0.46571
C         -2.11144       14.31420        2.27370
C         -1.12513       13.34903        1.65687
C          0.08315       13.78400        1.08521
C         -1.41813       11.97242        1.66889
C          0.97258       12.85752        0.52899
C         -0.52659       11.05176        1.11501
C          0.66772       11.49361        0.54350
H         -4.22444       16.37237        2.28095
H         -3.50747       13.93996        0.68556
H         -2.64974       13.74231        3.06146
H         -1.60653       15.13821        2.82455
H          0.34741       14.83135        1.07184
H         -2.34049       11.61105        2.10774
H          1.90126       13.19626        0.08874
H         -0.76326        9.99561        1.13050
H          1.35741       10.77816        0.11507
N         -3.31550       16.27524       -0.83339
C         -2.77695       17.19102       -1.83595
C         -2.40814       18.55584       -1.30690
O         -1.66106       19.26232       -1.97042
C         -3.91900       17.34365       -2.84389
C         -4.57381       15.98488       -2.76232
C         -4.59181       15.74207       -1.25366
H         -1.88615       16.69379       -2.28241
H         -4.66747       18.07429       -2.45289
H         -3.59955       17.67563       -3.85502
H         -5.56115       15.90421       -3.25673
H         -3.87977       15.25160       -3.23344
H         -5.39638       16.32500       -0.75508
H         -4.71117       14.65487       -1.07347
N         -2.95275       19.02429       -0.15144
C         -2.61664       20.32342        0.39744
C         -1.15833       20.30802        0.82042
O         -0.39510       21.14053        0.35069
C         -3.53475       20.68442        1.58196
C         -5.00949       20.94759        1.19377
C         -5.85799       19.75906        0.81078
O         -6.61013       19.80122       -0.30740
O         -6.00531       18.84445        1.59405
H         -3.62678       18.43573        0.35608
H         -2.76991       21.11430       -0.37239
H         -3.15630       21.64715        1.99343
H         -3.47569       19.92901        2.39182
H         -5.05646       21.71349        0.38967
H         -5.49899       21.37861        2.09274
N         -0.69854       19.34634        1.67169
C          0.68999       19.22003        2.06834
H          1.33082       20.01779        1.63721
H          0.76558       19.26314        3.17446
H          1.07900       18.23849        1.72190
H         -1.35662       18.64073        2.03352
Ca        -8.76249       18.97150       -0.50664
O         -7.69787       20.40106       -2.84754
H         -8.19390       20.82990       -2.10898
H         -6.76481       20.68571       -2.69217
O         -7.73825       17.34494       -3.12607
H         -7.95369       16.44782       -3.48577
H         -7.46530       17.86898       -3.92039
O         -9.25152       20.27910        2.09527
H         -9.70826       19.50599        2.51119
H         -8.29886       20.01622        2.07994

Ca 1.0



