%chk=apoCaM-CA-Ng.loop3.water3.frame761.chk
%nprocshared=20
%mem=10GB
%nosave
#b3lyp/svp scf=(tight,noincore,xqc) Test 
#IOP(5/87=12) Density=Current Pop=(MK,readradii) iop(6/33=2) iop(6/42=6)

apoCaM-CA-Ng.loop3.water3.frame761 

   0  1 
C         98.04002       18.03799       19.66689
C         99.42991       17.78650       20.18521
O        100.11472       16.90257       19.69342
H         97.30223       17.92663       20.48836
H         97.97828       19.07840       19.27565
H         97.77965       17.34145       18.84297
N         99.92085       18.58663       21.16637
C        101.29823       18.55041       21.65255
C        101.61007       17.29761       22.46176
O        100.91700       17.04640       23.43854
C        101.52609       19.79922       22.52106
C        102.96449       20.12200       22.74966
O        103.24839       21.16813       23.30865
O        103.94826       19.37638       22.22084
H         99.29438       19.33074       21.51416
H        101.96759       18.63466       20.77073
H        100.97543       19.71802       23.48283
H        101.12870       20.67801       21.96672
N        102.64697       16.46985       22.12921
C        102.95689       15.26195       22.89795
C        103.64200       15.54213       24.23891
O        103.62752       14.65436       25.07873
C        103.79534       14.26270       22.07128
C        102.99516       13.73195       20.87030
C        103.77186       12.65845       20.09907
C        102.88246       12.01593       19.02436
N        103.59244       10.94868       18.32081
H        103.19677       16.68065       21.28193
H        101.99391       14.75231       23.12741
H        104.04653       13.39042       22.71453
H        104.74654       14.73071       21.73810
H        102.71979       14.55979       20.18236
H        102.06050       13.27352       21.26148
H        104.09179       11.86274       20.80665
H        104.67651       13.10810       19.63326
H        102.54994       12.78709       18.29452
H        101.97976       11.58305       19.51204
H        103.90585       10.21674       18.99964
H        102.94476       10.50672       17.62884
H        104.41921       11.33926       17.81406
N        104.29925       16.71111       24.49820
C        104.94503       17.02106       25.78100
C        104.42617       18.32654       26.39378
O        104.88248       18.68707       27.47201
C        106.48148       17.03638       25.62426
C        106.97730       17.88118       24.48325
O        106.66314       19.18270       24.39940
O        107.67241       17.37897       23.61542
H        104.37296       17.40822       23.74767
H        104.72610       16.23094       26.53403
H        106.82668       15.99283       25.45261
H        106.94451       17.37849       26.57645
N        103.43229       19.05048       25.80999
C        102.80979       20.22024       26.40608
C        103.59797       21.52304       26.36880
O        102.99922       22.51075       26.76833
H        102.99572       18.69632       24.95089
H        102.49575       19.98746       27.44784
H        101.88091       20.42422       25.82988
N        104.89178       21.64502       25.92281
C        105.57328       22.95114       25.86860
C        106.21700       23.23266       24.51219
O        106.32333       22.33616       23.69738
C        106.63815       23.07353       26.99176
C        108.03150       22.59669       26.61552
N        108.28328       21.32118       26.24946
O        108.94924       23.40468       26.62117
H        105.40028       20.80198       25.64772
H        104.82066       23.74490       26.06221
H        106.27274       22.57828       27.91720
H        106.73992       24.15610       27.22877
H        107.53955       20.61668       26.23484
H        109.23580       21.04235       25.96809
N        106.75576       24.45916       24.25648
C        107.60132       24.77424       23.10959
C        106.96030       24.53650       21.75985
O        105.87461       25.04468       21.51835
H        106.62111       25.20486       24.95525
H        108.54367       24.19060       23.18625
H        107.87397       25.84985       23.17137
N        107.63499       23.83062       20.79633
C        107.12648       23.60517       19.43800
C        106.06983       22.48175       19.42810
O        105.22370       22.65230       20.50816
C        108.28766       23.21567       18.49499
C        109.32548       24.29901       18.24818
C        110.47288       23.95368       17.51341
C        109.18927       25.63146       18.69831
C        111.45971       24.90522       17.23863
C        110.17218       26.58231       18.41118
C        111.30971       26.22491       17.68426
O        112.24811       27.15613       17.41973
H        108.58985       23.50857       21.01797
H        106.65189       24.53741       19.06171
H        107.88712       22.92584       17.49918
H        108.79022       22.32287       18.93054
H        110.60656       22.93980       17.15614
H        108.32836       25.96241       19.25888
H        112.33839       24.61578       16.67631
H        110.04619       27.60194       18.75388
H        113.05095       26.95065       16.92002
N        105.33210       22.42527       18.13870
C        104.11993       21.56431       18.03571
C        104.46704       20.10289       18.28977
O        105.01365       19.79276       19.33032
C        102.89666       22.05905       18.89379
C        101.62156       21.18950       18.70656
C        102.56999       23.54153       18.61554
C        101.02317       21.16750       17.29687
H        105.12112       23.38412       17.78148
H        103.78312       21.64071       16.98037
H        103.12411       21.96608       19.97132
H        100.83597       21.56630       19.39916
H        101.84406       20.14572       19.00438
H        103.41243       24.20091       18.90700
H        102.35242       23.70956       17.53961
H        101.69270       23.86615       19.21385
H        100.11447       20.52898       17.30253
H        100.72504       22.18302       16.96806
H        101.72828       20.74036       16.56093
N        104.12296       19.13472       17.39301
C        104.42273       17.71709       17.60034
C        105.02051       17.03885       16.37046
O        105.35447       15.86357       16.47221
C        103.12632       16.99473       17.98906
O        102.19040       17.08621       16.94502
H        103.55137       19.40594       16.58344
H        105.14098       17.59575       18.43767
H        102.73635       17.46552       18.91873
H        103.32434       15.92388       18.20932
H        101.30773       17.28006       17.35322
N        105.10011       17.65995       15.15839
C        105.42789       16.94060       13.93206
C        106.92228       16.69416       13.78747
O        107.68654       17.31605       14.51238
C        104.90954       17.75418       12.74385
H        104.77856       18.63196       15.06569
H        104.87893       15.97369       13.95305
H        105.09389       17.24397       11.79308
H        103.81252       17.90086       12.84759
H        105.40256       18.74875       12.70770
N        107.45240       15.79985       12.89439
C        106.68612       14.81741       12.12787
C        107.40211       14.45881       10.82444
O        108.57431       14.11543       10.89540
C        106.55523       13.54786       12.97592
H        108.47727       15.67541       12.92354
H        105.65656       15.15904       11.94237
H        107.55464       13.12847       13.22097
H        106.02942       13.77661       13.92743
H        105.96508       12.78093       12.42964
N        106.79342       14.42124        9.59785
C        105.38414       14.71141        9.35223
C        105.10316       16.20663        9.39346
O        103.94219       16.57757        9.49877
C        104.95686       14.08734        8.00167
C        103.44667       14.15685        7.72495
C        103.09775       13.35898        6.50009
O        102.57480       13.89882        5.53864
O        103.34532       12.03471        6.46607
H        107.36163       14.08082        8.80500
H        104.79374       14.18784       10.13594
H        105.24257       13.01268        8.04228
H        105.51472       14.56240        7.16352
H        103.13186       15.21232        7.58274
H        102.88696       13.72795        8.58331
N        106.11024       17.12606        9.30567
C        105.89424       18.55816        9.36986
H        104.83129       18.82131        9.55326
H        106.50231       18.97956       10.19779
H        106.21525       19.02541        8.41581
H        107.08255       16.81452        9.17187
Ca       105.58807       20.75794       21.69551
O        108.73535       20.76001       22.46906
H        109.28290       20.23551       23.10582
H        109.39008       21.13707       21.82920
O        105.99592       17.27274       20.96746
H        105.81401       16.94531       21.88178
H        106.08705       16.44937       20.42594
O        107.82148       19.33063       19.67610
H        108.76906       19.19902       19.92840
H        107.60773       18.55630       19.09684

Ca 1.0



