%chk=apoCaM-CA-Ng.loop4.water5.frame1014.chk
%nprocshared=20
%mem=10GB
%nosave
#b3lyp/svp scf=(tight,noincore,xqc) Test 
#IOP(5/87=12) Density=Current Pop=(MK,readradii) iop(6/33=2) iop(6/42=6)

apoCaM-CA-Ng.loop4.water5.frame1014 

   -3  1 
C         28.25651       42.23702       22.63203
C         28.56381       41.40309       21.41712
O         29.53663       40.66553       21.45340
H         27.25137       41.97660       23.02616
H         29.00140       42.04671       23.43550
H         28.29356       43.31533       22.37483
N         27.78714       41.41283       20.29430
C         26.57027       42.20107       20.11363
C         25.32232       41.31273       20.14917
O         24.22235       41.83719       20.06612
C         26.66649       43.03603       18.81735
C         27.95370       43.81016       18.78952
O         28.24813       44.53794       19.72509
O         28.83238       43.65046       17.77965
H         28.06414       40.78867       19.52642
H         26.45250       42.91502       20.95561
H         25.80762       43.73820       18.76625
H         26.63786       42.37270       17.93076
N         25.42644       39.97065       20.38945
C         24.29514       39.10900       20.73692
C         23.31715       38.80513       19.60972
O         22.22019       38.36481       19.93095
C         24.79739       37.76538       21.36458
C         25.65363       36.93996       20.35413
C         25.55448       38.04719       22.67928
C         26.11657       35.58604       20.88719
H         26.36417       39.57561       20.49035
H         23.71508       39.64438       21.52270
H         23.90337       37.16126       21.63786
H         26.56201       37.49220       20.04009
H         25.04944       36.74460       19.44485
H         25.81402       37.10460       23.20017
H         26.48900       38.62041       22.50894
H         24.90717       38.62826       23.37017
H         26.67637       35.05355       20.08861
H         26.80536       35.70897       21.74761
H         25.24466       34.96923       21.18703
N         23.65342       38.88856       18.29146
C         22.75884       38.44505       17.21546
C         22.56781       39.56831       16.20002
O         23.25942       40.57552       16.29872
C         23.39343       37.18461       16.57395
C         22.50434       36.29434       15.74269
O         21.17315       36.47352       15.67943
O         22.99548       35.32561       15.18566
H         24.60227       39.19975       18.04965
H         21.77101       38.17077       17.64352
H         23.76881       36.52404       17.38533
H         24.26225       37.50739       15.96934
N         21.64018       39.49061       15.20178
C         21.47830       40.54020       14.21157
C         22.66860       40.62354       13.28260
O         23.54951       39.77559       13.33501
H         20.99509       38.69640       15.15180
H         21.33143       41.50730       14.73994
H         20.57656       40.34772       13.59050
N         22.76284       41.66837       12.41623
C         23.89190       41.87457       11.51718
C         23.40748       42.13497       10.09488
O         22.46519       42.89603        9.92764
C         24.77210       43.02938       12.04198
C         24.07078       44.35171       12.20456
O         23.62938       44.94858       11.23655
O         23.96762       44.90629       13.42729
H         22.02766       42.39205       12.44757
H         24.56417       40.99332       11.52889
H         25.64720       43.16359       11.36945
H         25.16122       42.72093       13.03757
N         24.02906       41.62513        8.99232
C         25.19790       40.76291        9.02406
C         24.84033       39.33591        9.37811
O         23.65711       39.05880        9.52366
H         23.68834       41.92450        8.06451
H         25.96438       41.20583        9.68769
H         25.60367       40.72784        7.99363
N         25.75517       38.32179        9.47127
C         27.21893       38.39051        9.44814
C         27.79284       38.88463       10.76153
O         27.48674       39.98499       11.19642
C         27.87864       39.17609        8.29920
C         27.50978       38.68854        6.89852
C         28.35896       39.41809        5.88552
N         27.80014       40.22778        4.95837
O         29.57423       39.28309        5.91222
H         25.36844       37.37345        9.60690
H         27.57439       37.34328        9.31770
H         28.97642       39.03940        8.42271
H         27.70113       40.26442        8.38810
H         26.42917       38.86611        6.71719
H         27.70675       37.59868        6.80574
H         26.78066       40.36635        4.92138
H         28.39513       40.72881        4.28145
N         28.72978       38.12272       11.39334
C         29.47326       38.53314       12.57455
C         29.24354       37.49624       13.65198
O         29.38512       36.31188       13.37663
C         30.98107       38.65843       12.21966
C         31.79428       39.16305       13.42270
C         31.19013       39.62811       11.04386
H         28.98832       37.21362       10.97878
H         29.13568       39.53200       12.93302
H         31.37340       37.66255       11.91545
H         31.71193       38.46549       14.27564
H         32.86940       39.24108       13.15560
H         31.43488       40.16416       13.74628
H         32.27005       39.70745       10.79734
H         30.67162       39.26167       10.13482
H         30.80226       40.63972       11.29227
N         28.90176       37.87409       14.91305
C         28.57372       36.92003       15.96958
C         29.68147       36.86710       17.00409
O         29.44278       36.97673       18.19861
C         27.17277       37.25629       16.51072
C         27.08100       38.69575       16.95845
N         26.33251       39.58899       16.26845
O         27.71721       39.06677       17.92859
H         28.88473       38.88196       15.13179
H         28.53195       35.88755       15.55979
H         26.87372       36.57272       17.33413
H         26.47111       37.09747       15.66646
H         25.80410       39.30750       15.43084
H         26.28995       40.57411       16.56291
N         30.95278       36.67423       16.56418
C         32.12792       36.57043       17.41913
C         32.79980       37.92367       17.51108
O         32.32409       38.86369       16.89252
C         33.03240       35.43004       16.88781
C         33.48634       35.69227       15.46676
C         34.52186       36.60291       15.20251
C         32.84041       35.05881       14.38937
C         34.89639       36.88528       13.88612
C         33.20409       35.35614       13.07364
C         34.23268       36.27353       12.81774
O         34.58591       36.57918       11.55328
H         31.09963       36.66662       15.54782
H         31.81798       36.31410       18.45651
H         32.41094       34.50719       16.91292
H         33.91038       35.23818       17.54093
H         35.03965       37.09468       16.01441
H         32.02993       34.36226       14.56641
H         35.69556       37.59050       13.69698
H         32.67844       34.88098       12.25494
H         34.13572       36.19573       10.78709
N         33.88540       38.11097       18.31070
C         34.42736       39.43369       18.59862
C         34.42361       39.59705       20.10358
O         35.11355       38.83950       20.77374
C         35.82272       39.58247       17.97111
C         36.37087       41.01217       18.12183
C         37.66805       41.22630       17.38611
O         38.24456       42.44264       17.40957
O         38.19766       40.32503       16.75369
H         34.30640       37.29411       18.77978
H         33.78519       40.21875       18.14378
H         35.71928       39.36990       16.88380
H         36.53114       38.84349       18.40667
H         36.52425       41.24340       19.19731
H         35.62996       41.72897       17.70604
N         33.61052       40.50879       20.71947
C         33.48500       40.53971       22.17584
C         32.80574       39.26444       22.68951
O         32.78638       39.07080       23.89739
C         32.70014       41.76708       22.71524
C         33.32603       43.14390       22.40450
C         33.09579       43.54302       20.98113
O         34.02223       43.74170       20.21234
O         31.82218       43.63081       20.56538
H         33.04262       41.14036       20.14021
H         34.51076       40.60055       22.60289
H         32.68707       41.67768       23.82389
H         31.64268       41.74398       22.37751
H         34.40311       43.14356       22.67395
H         32.81136       43.90814       23.02747
N         32.21463       38.36176       21.84517
C         31.57672       37.13953       22.29081
H         30.51000       37.14787       21.98220
H         32.07777       36.27173       21.81143
H         31.62626       37.00868       23.39138
H         32.19060       38.52929       20.83029
Ca        30.94971       43.73211       18.50849
O         33.85663       44.07642       16.88616
H         34.26306       43.69003       16.07014
H         34.62780       44.29312       17.46816
O         31.01648       40.90908       18.23063
H         31.18230       41.15591       17.28553
H         30.36897       40.16255       18.18453
O         32.40165       46.76019       18.23468
H         32.03220       47.59856       17.85891
H         32.34332       46.88128       19.21565
O         29.49519       46.27088       16.84937
H         29.83069       47.13010       16.49151
H         28.78426       46.52757       17.48921
O         31.08747       43.15345       15.15065
H         31.06744       43.56677       14.25113
H         30.54831       42.32831       15.05629

Ca 1.0



