%chk=apoCaM-CA-Ng.loop3.water5.frame392.chk
%nprocshared=20
%mem=10GB
%nosave
#b3lyp/svp scf=(tight,noincore,xqc) Test 
#IOP(5/87=12) Density=Current Pop=(MK,readradii) iop(6/33=2) iop(6/42=6)

apoCaM-CA-Ng.loop3.water5.frame392 

   0  1 
C         14.99410      100.56020       34.48024
C         15.92762      101.57342       33.88332
O         16.98866      101.79018       34.44745
H         14.06561      100.45837       33.88001
H         15.49660       99.57117       34.52473
H         14.71598      100.87192       35.50914
N         15.59437      102.23351       32.73327
C         16.42774      103.23237       32.06083
C         16.53644      104.54884       32.84613
O         17.20179      105.45875       32.37454
C         17.79995      102.60895       31.68863
C         18.61008      103.37506       30.67137
O         19.80655      102.88951       30.29045
O         18.19182      104.39897       30.15495
H         14.69816      101.99727       32.28046
H         15.91492      103.48439       31.10579
H         17.61600      101.60903       31.23868
H         18.41692      102.47256       32.60014
N         15.86640      104.74776       34.01914
C         15.86675      106.00452       34.76461
C         16.47288      105.80830       36.15425
O         16.49013      106.74881       36.93536
C         14.39215      106.47057       34.82566
C         14.15915      107.89489       35.36425
C         12.68445      108.32433       35.23081
C         11.73031      107.53839       36.14855
N         10.34525      107.96464       35.94751
H         15.27974      103.99576       34.40538
H         16.46300      106.77974       34.23630
H         13.81330      105.72819       35.41409
H         14.00693      106.46115       33.78164
H         14.76805      108.59326       34.74983
H         14.47162      107.99658       36.42293
H         12.36802      108.21071       34.17058
H         12.60722      109.40111       35.49633
H         12.02040      107.71057       37.20908
H         11.79051      106.44996       35.94275
H         10.04896      107.75668       34.96578
H          9.72498      107.43619       36.60299
H         10.24610      108.98824       36.13647
N         16.98049      104.60098       36.53956
C         17.43061      104.31692       37.89089
C         18.64806      105.14352       38.27199
O         19.51013      105.37436       37.43506
C         17.73790      102.81224       38.03613
C         17.73749      102.41058       39.47980
O         16.70920      102.51226       40.12835
O         18.83544      101.92295       40.07256
H         16.98937      103.82060       35.87425
H         16.57596      104.55100       38.56508
H         18.69381      102.57202       37.52341
H         16.93667      102.20809       37.55600
N         18.80186      105.56600       39.55560
C         19.92983      106.34697       40.03527
C         21.26595      105.67167       39.81051
O         22.16611      106.32142       39.29768
H         18.07564      105.31802       40.24487
H         19.80113      106.49952       41.12894
H         19.93079      107.35040       39.55471
N         21.47145      104.37336       40.17365
C         22.76924      103.70333       40.06363
C         22.80727      102.63971       38.96779
O         23.80601      101.94247       38.86401
C         23.20202      103.18344       41.45407
C         22.35055      102.09985       42.07024
N         22.63347      101.66898       43.32157
O         21.41730      101.60518       41.45791
H         20.67218      103.84152       40.54770
H         23.55538      104.43339       39.77218
H         23.20162      104.05377       42.14634
H         24.24294      102.79898       41.39347
H         23.41568      102.07817       43.85353
H         22.07047      100.93109       43.76567
N         21.81878      102.54489       38.03509
C         21.86853      101.65007       36.88837
C         21.58742      100.21229       37.25012
O         22.33572       99.32468       36.86875
H         21.02582      103.19952       38.07459
H         22.82362      101.77063       36.33105
H         21.04822      101.94402       36.19688
N         20.45456       99.92701       37.94089
C         19.91354       98.59998       38.18924
C         19.94137       98.28483       39.67459
O         19.56488       99.11924       40.48358
C         18.46704       98.58762       37.64996
C         17.71860       97.32326       37.99265
C         18.14596       96.07091       37.52226
C         16.57757       97.39812       38.80833
C         17.44377       94.91206       37.87287
C         15.88205       96.24194       39.16049
C         16.31449       94.99281       38.69649
O         15.65567       93.86772       39.03808
H         19.89708      100.72130       38.27350
H         20.49334       97.81812       37.65066
H         18.47980       98.72841       36.54691
H         17.92587       99.45658       38.08679
H         19.02256       95.99020       36.89206
H         16.22869       98.35317       39.18019
H         17.78337       93.94940       37.51283
H         15.00963       96.32061       39.79671
H         14.87728       93.88486       39.61348
N         20.33037       97.04566       40.09145
C         20.42502       96.65781       41.49687
C         21.59597       97.40524       42.09850
O         21.41055       98.10636       43.08204
C         20.53173       95.10819       41.63768
C         19.22188       94.47064       41.08615
C         20.74462       94.70626       43.11081
C         19.19671       92.94338       41.08141
H         20.57126       96.34639       39.37257
H         19.49111       96.94790       42.03253
H         21.40313       94.74533       41.04872
H         19.07562       94.78666       40.03672
H         18.34897       94.83560       41.67246
H         21.67484       95.15483       43.51201
H         19.89043       95.04057       43.73748
H         20.86069       93.60866       43.21202
H         19.24535       92.53129       42.10876
H         18.23976       92.60075       40.63112
H         20.03631       92.54654       40.47420
N         22.81261       97.38756       41.48506
C         23.87127       98.31063       41.87160
C         24.59961       97.91843       43.14278
O         25.33561       98.75386       43.64784
C         24.89201       98.46555       40.72661
O         24.26134       98.79709       39.51664
H         22.91649       96.83533       40.61917
H         23.40259       99.30818       42.02401
H         25.42254       97.50018       40.58075
H         25.65077       99.24091       40.97322
H         23.67511       99.57666       39.69286
N         24.50221       96.66683       43.68861
C         25.28222       96.22960       44.84723
C         24.93035       96.98648       46.12323
O         25.68463       96.89040       47.08314
C         26.79040       96.31244       44.53460
H         23.89932       95.96520       43.23752
H         25.07209       95.15406       45.03848
H         27.01814       95.73250       43.61486
H         27.13779       97.35474       44.38898
H         27.38259       95.87800       45.36769
N         23.77544       97.70603       46.23599
C         23.42329       98.48370       47.41718
C         22.22957       97.87438       48.12207
O         21.20373       97.65105       47.49396
C         23.12175       99.92355       47.00716
H         23.09970       97.70245       45.45710
H         24.27456       98.52544       48.13216
H         24.01374      100.37028       46.51920
H         22.26754       99.95961       46.29838
H         22.87017      100.52672       47.90613
N         22.30829       97.59267       49.45516
C         21.25307       96.98200       50.25494
C         20.98587       95.57139       49.76439
O         19.84708       95.21932       49.48516
C         19.96763       97.84717       50.29949
C         20.22553       99.27904       50.78599
C         18.93853      100.05390       50.83970
O         17.94020       99.65192       51.65010
O         18.79151      101.05205       50.15245
H         23.18394       97.81748       49.95281
H         21.63277       96.89380       51.29839
H         19.24238       97.35784       50.98780
H         19.50166       97.89467       49.29245
H         20.93042       99.78439       50.08976
H         20.67777       99.26429       51.80031
N         22.02273       94.70123       49.62552
C         21.83198       93.34649       49.15865
H         21.34845       93.35365       48.15842
H         22.81388       92.83448       49.07467
H         21.19560       92.78703       49.87628
H         22.98168       95.01440       49.84087
Ca        18.59598      101.33346       42.22888
O         16.91344      100.87010       44.70015
H         17.14890      101.52107       45.40820
H         16.48260      100.12013       45.18096
O         16.43711       99.24998       41.73670
H         15.62094       99.56362       42.20113
H         16.67566       98.40412       42.19273
O         19.69568      103.69485       43.61147
H         20.15486      103.38535       44.43229
H         18.99813      104.31857       43.93465
O         16.23118      103.19734       42.84389
H         15.35369      103.45063       42.46187
H         16.18361      103.47838       43.79132
O         19.78042      100.07560       44.85210
H         19.55525       99.18297       45.21388
H         19.89931       99.91889       43.88350

Ca 1.0



