%chk=apoCaM-CA-Ng.loop3.water4.frame249.chk
%nprocshared=20
%mem=10GB
%nosave
#b3lyp/svp scf=(tight,noincore,xqc) Test 
#IOP(5/87=12) Density=Current Pop=(MK,readradii) iop(6/33=2) iop(6/42=6)

apoCaM-CA-Ng.loop3.water4.frame249 

   0  1 
C         30.69910       45.57405        1.68631
C         30.52892       46.54041        0.55077
O         29.50756       46.48165       -0.11765
H         31.64579       45.75526        2.23752
H         29.85326       45.68718        2.39692
H         30.70797       44.53668        1.29380
N         31.49981       47.46065        0.27017
C         31.41159       48.48187       -0.77590
C         31.38225       47.92077       -2.19879
O         31.32424       48.72056       -3.12285
C         30.21875       49.43130       -0.51326
C         30.30278       50.13181        0.82160
O         29.41831       50.90600        1.14808
O         31.34220       49.93205        1.65726
H         32.34957       47.46733        0.85498
H         32.33456       49.10310       -0.72753
H         29.26241       48.87258       -0.56687
H         30.19441       50.21630       -1.29947
N         31.47349       46.58419       -2.46336
C         31.52501       46.02554       -3.81527
C         30.39273       45.05529       -4.10825
O         30.25610       44.66177       -5.25988
C         32.86798       45.27671       -4.01602
C         33.04739       44.09845       -3.02632
C         34.34054       43.32317       -3.26902
C         34.47818       42.18472       -2.24495
N         35.71095       41.43139       -2.46195
H         31.55532       45.93538       -1.67626
H         31.45405       46.84105       -4.56772
H         33.70788       45.99248       -3.88842
H         32.90840       44.88405       -5.05651
H         32.19577       43.38980       -3.12110
H         33.07984       44.47705       -1.98482
H         35.20657       44.01278       -3.17139
H         34.32683       42.89847       -4.29612
H         33.60775       41.49560       -2.33055
H         34.48523       42.60705       -1.21442
H         36.53858       42.06140       -2.35316
H         35.77238       40.66488       -1.75335
H         35.70849       41.01000       -3.41900
N         29.63049       44.52007       -3.11519
C         28.74456       43.39506       -3.35758
C         27.46654       43.84853       -4.03745
O         27.02331       44.96408       -3.79979
C         28.50016       42.64986       -2.03183
C         27.90601       41.29119       -2.24386
O         26.79387       41.17075       -2.72219
O         28.60008       40.19225       -1.89242
H         29.79530       44.79800       -2.14028
H         29.28883       42.67084       -4.00717
H         27.87872       43.25956       -1.34332
H         29.48802       42.48979       -1.54404
N         26.80616       43.01124       -4.88417
C         25.57364       43.35918       -5.56509
C         24.49387       43.76642       -4.59551
O         23.97996       44.86756       -4.73329
H         27.19312       42.07463       -5.05926
H         25.22219       42.48438       -6.14708
H         25.76744       44.18574       -6.28296
N         24.09676       42.93380       -3.58945
C         23.06142       43.30177       -2.62631
C         23.59237       43.28291       -1.19726
O         22.89928       42.81836       -0.30180
C         21.80950       42.41132       -2.80863
C         22.07257       40.94405       -2.56904
N         21.47308       40.28910       -1.55016
O         22.82117       40.33484       -3.31386
H         24.55182       42.01502       -3.50553
H         22.73390       44.34679       -2.81080
H         21.41931       42.52798       -3.84204
H         21.02257       42.76937       -2.11125
H         20.82715       40.77123       -0.91034
H         21.66274       39.29156       -1.39754
N         24.82717       43.78239       -0.90927
C         25.37962       43.84277        0.43575
C         25.30620       42.51323        1.15473
O         24.77294       42.47850        2.25506
H         25.41814       44.12828       -1.67959
H         24.82791       44.60602        1.02818
H         26.43889       44.17439        0.37423
N         25.80191       41.37635        0.58861
C         25.76936       40.07434        1.24218
C         24.92824       39.04311        0.41675
O         25.71099       38.57489       -0.66149
C         27.21817       39.55895        1.44005
C         28.09311       40.42601        2.31596
C         27.79311       40.59554        3.67709
C         29.25202       41.02919        1.79101
C         28.64475       41.33917        4.50189
C         30.09920       41.77482        2.61668
C         29.80468       41.92604        3.97474
O         30.64632       42.62586        4.76271
H         26.21857       41.44163       -0.34268
H         25.28881       40.16925        2.23978
H         27.69449       39.46493        0.44190
H         27.19491       38.54429        1.89084
H         26.91296       40.13355        4.10493
H         29.51201       40.91321        0.74635
H         28.40921       41.44745        5.55296
H         30.99447       42.22294        2.20351
H         30.49606       42.72998        5.71324
N         24.58665       37.91488        1.31462
C         24.01131       36.71451        0.67444
C         22.53192       36.92490        0.35687
O         22.20301       37.00580       -0.81319
C         24.26928       35.46422        1.57366
C         25.74636       35.35412        2.04336
C         23.83537       34.16390        0.87633
C         26.77713       35.21912        0.92159
H         23.98471       38.23819        2.10805
H         24.54871       36.53307       -0.27882
H         23.67345       35.56263        2.50668
H         25.84425       34.47413        2.71635
H         26.00723       36.25027        2.64675
H         24.37033       34.02317       -0.08540
H         24.03182       33.28976        1.53260
H         22.75595       34.17374        0.66445
H         26.60246       34.30359        0.32157
H         26.75163       36.10687        0.26214
H         27.79246       35.14976        1.36510
N         21.58837       37.04727        1.34007
C         20.18689       37.40441        1.07966
C         19.38800       36.41180        0.22320
O         18.27159       36.74853       -0.14341
C         19.44993       37.66391        2.41016
O         20.13121       38.61154        3.19195
H         21.89810       36.96590        2.32005
H         20.19966       38.36296        0.51632
H         19.38988       36.71672        2.98833
H         18.41069       38.01791        2.22989
H         20.24450       39.42650        2.63611
N         19.89649       35.21217       -0.17914
C         19.26245       34.31289       -1.14321
C         19.06957       35.01941       -2.47445
O         17.99050       34.97524       -3.05348
C         17.97262       33.67892       -0.60378
H         20.82250       34.93435        0.15226
H         19.97570       33.47852       -1.33052
H         18.18486       33.12593        0.33467
H         17.19178       34.44190       -0.40931
H         17.57434       32.95239       -1.34678
N         20.10866       35.71591       -3.00513
C         20.08526       36.38603       -4.29583
C         21.30650       35.97819       -5.09449
O         22.18584       35.35323       -4.53057
C         20.12665       37.90209       -4.07096
H         20.97468       35.77943       -2.45328
H         19.15944       36.12710       -4.85454
H         21.05653       38.18101       -3.53021
H         20.10151       38.45152       -5.03544
H         19.25584       38.22400       -3.46162
N         21.45281       36.35969       -6.39155
C         22.66436       36.21345       -7.20169
C         23.07693       34.76915       -7.51315
O         22.95807       34.39061       -8.67125
C         23.82319       37.07373       -6.63396
C         23.40740       38.55798       -6.56614
C         24.55492       39.49700       -6.28857
O         24.92737       40.21967       -7.19979
O         25.18330       39.61213       -5.09057
H         20.66508       36.86324       -6.83038
H         22.41706       36.65592       -8.19549
H         24.68144       36.98105       -7.33617
H         24.14850       36.72193       -5.63478
H         22.58687       38.72942       -5.83957
H         23.01531       38.81965       -7.57677
N         23.60702       33.91957       -6.58365
C         24.02978       32.56439       -6.88438
H         25.09892       32.44679       -6.60810
H         23.42807       31.84630       -6.28817
H         23.91984       32.30752       -7.95860
H         23.75996       34.22306       -5.61941
Ca        25.12330       38.93358       -2.88719
O         28.20416       39.72205       -4.94457
H         27.95777       39.91963       -5.88300
H         29.18877       39.62972       -4.95631
O         26.97505       37.13083       -5.16090
H         27.01687       37.51713       -6.07160
H         26.82838       36.16362       -5.30783
O         24.65370       36.24377       -2.95888
H         24.47529       35.38793       -3.41760
H         23.75831       36.62407       -2.77478
O         27.72044       37.02696       -2.14505
H         28.50009       36.79655       -2.70893
H         28.11606       37.32754       -1.28876

Ca 1.0



