%chk=apoCaM-CA-Ng.loop2.water4.frame810.chk
%nprocshared=20
%mem=10GB
%nosave
#b3lyp/svp scf=(tight,noincore,xqc) Test 
#IOP(5/87=12) Density=Current Pop=(MK,readradii) iop(6/33=2) iop(6/42=6)

apoCaM-CA-Ng.loop2.water4.frame810 

   -2  1 
C         99.81756       79.51584       79.45152
C        100.20463       80.68941       80.30160
O        100.97432       80.50989       81.23441
H         99.10111       79.80932       78.65561
H        100.72545       79.09560       78.96905
H         99.34684       78.73623       80.08503
N         99.73499       81.93562       80.01346
C        100.10788       83.12705       80.76111
C        101.00297       83.96046       79.86643
O        100.66137       85.07645       79.49848
C         98.83024       83.85116       81.23853
C         99.14199       85.03439       82.11443
O         98.77326       86.15279       81.79328
O         99.81261       84.86138       83.26992
H         99.12144       82.05890       79.19252
H        100.70224       82.86222       81.66365
H         98.21388       83.14510       81.83603
H         98.22988       84.17200       80.35816
N        102.20050       83.43712       79.47666
C        103.12505       84.12387       78.58759
C        102.50968       84.21956       77.19846
O        102.18010       83.17586       76.65123
C        104.45031       83.35483       78.51436
H        102.46555       82.50878       79.84171
H        103.35275       85.11056       79.03176
H        104.88946       83.27513       79.53235
H        104.29616       82.32916       78.11570
H        105.17362       83.88896       77.86343
N        102.26818       85.39566       76.54906
C        102.64123       86.72059       77.03291
C        101.91320       87.80076       76.24867
O        101.97014       87.81465       75.03070
C        104.17513       86.94934       76.99458
C        104.85184       86.77352       75.65954
O        106.17501       87.00376       75.56994
O        104.24026       86.40772       74.66897
H        101.77116       85.33284       75.64540
H        102.31184       86.82885       78.08720
H        104.68256       86.26089       77.69460
H        104.37361       87.98267       77.35373
N        101.21111       88.75759       76.91250
C        100.46580       89.82338       76.27112
C        101.04916       91.15152       76.68845
O        100.47399       91.77520       77.56848
H        101.20483       88.74554       77.94410
H         99.42017       89.74750       76.64191
H        100.41189       89.73173       75.16993
N        102.19650       91.67206       76.15822
C        102.91654       91.14164       75.00050
C        102.02615       91.27689       73.77840
O        101.50029       92.35777       73.54816
C        104.24531       91.91517       74.82584
C        105.13045       91.38601       73.72017
N        104.79377       91.52747       72.41748
O        106.19094       90.85130       74.00937
H        102.54685       92.54836       76.57795
H        103.19978       90.08341       75.18122
H        104.80246       91.80375       75.78317
H        104.06457       92.99891       74.66207
H        103.92846       92.00660       72.13577
H        105.42430       91.18171       71.68120
N        101.81147       90.21716       72.95108
C        100.86789       90.24298       71.84820
C        101.57060       90.18864       70.51961
O        101.30614       91.05014       69.69413
H        102.32738       89.34184       73.11584
H        100.23240       91.15597       71.87432
H        100.18526       89.37215       71.95093
N        102.43653       89.17916       70.21931
C        103.06400       89.02397       68.90844
C        103.50800       87.54890       68.74120
O        104.61729       87.25960       69.54272
C        104.26186       89.99875       68.65551
C        103.91685       91.48752       68.66279
O        105.27523       89.77902       69.60302
H        102.56382       88.43414       70.92060
H        102.27520       89.18857       68.14072
H        104.63669       89.77424       67.62790
H        106.13664       89.70699       69.11485
H        104.81920       92.07730       68.39563
H        103.12317       91.70766       67.91852
H        103.60484       91.82067       69.67240
N        103.82576       87.20535       67.35460
C        103.75818       85.74668       67.12232
C        105.15738       85.30585       66.75881
O        105.71580       85.83743       65.80871
C        102.71166       85.38227       66.02265
C        102.71701       83.87147       65.65636
C        101.29204       85.82864       66.43620
C        102.35269       82.91768       66.79961
H        103.27489       87.75698       66.65814
H        103.45039       85.21251       68.05077
H        102.97895       85.93244       65.09275
H        103.72202       83.59007       65.27600
H        101.99646       83.70496       64.82614
H        101.23268       86.92428       66.59275
H        100.56260       85.57384       65.63858
H        100.97600       85.34308       67.38246
H        103.07099       83.00599       67.63618
H        101.32655       83.10794       67.17397
H        102.38983       81.87178       66.42927
N        105.79820       84.35689       67.50081
C        107.19736       83.99937       67.30215
C        107.38165       82.57063       66.81910
O        108.52892       82.19938       66.60557
C        107.96331       84.22033       68.62117
C        107.84943       85.64074       69.09965
O        108.27040       86.55924       68.41458
O        107.28245       85.90487       70.29134
H        105.29162       83.89604       68.27108
H        107.65710       84.64655       66.52246
H        109.04054       83.98348       68.48230
H        107.55449       83.53855       69.39975
N        106.33413       81.72429       66.57611
C        106.51955       80.38841       66.01778
C        105.92317       79.31999       66.93035
O        104.70749       79.31202       67.07066
C        105.86047       80.33347       64.62215
C        105.92301       78.95565       64.00115
C        104.73356       78.27469       63.68508
C        107.15694       78.33475       63.74027
C        104.77862       76.99561       63.12451
C        107.19697       77.05239       63.18352
C        106.00912       76.38353       62.87617
H        105.36792       82.04132       66.74310
H        107.59377       80.19994       65.86643
H        106.36197       81.06315       63.94994
H        104.79776       80.65010       64.71999
H        103.76969       78.73091       63.87465
H        108.08651       78.83806       63.97130
H        103.85834       76.47842       62.88516
H        108.14942       76.57621       62.99083
H        106.04146       75.39137       62.44511
N        106.68577       78.34824       67.54032
C        106.14876       77.20336       68.27560
C        105.16576       77.46921       69.40310
O        104.63989       76.49880       69.93194
C        107.39508       76.53309       68.86364
C        108.41869       76.78907       67.79078
C        108.13092       78.23910       67.41880
H        105.64819       76.55672       67.52001
H        107.72832       77.10443       69.76230
H        107.25968       75.46772       69.14764
H        109.47393       76.58555       68.07102
H        108.14797       76.14383       66.92302
H        108.59954       78.96545       68.11874
H        108.51763       78.37056       66.38887
N        104.86068       78.72327       69.83972
C        103.87955       78.96386       70.89565
C        102.46480       78.52431       70.51584
O        101.60062       78.55941       71.38172
C        103.87786       80.45469       71.29482
C        103.37210       81.37419       70.16643
C        103.48749       82.80893       70.56339
O        102.38669       83.58009       70.63775
O        104.58455       83.28815       70.79921
H        105.37227       79.52305       69.44634
H        104.20176       78.37726       71.78515
H        104.91721       80.73482       71.57606
H        103.23434       80.60089       72.19099
H        102.30872       81.14130       69.94264
H        103.96054       81.23344       69.23731
N        102.13717       78.12733       69.25148
C        100.79501       77.72493       68.89431
H        100.08755       78.56211       69.07316
H        100.75679       77.45288       67.81748
H        100.49087       76.84181       69.49471
H        102.84099       78.11985       68.50247
Ca       103.93109       85.98114       71.27960
O        107.79546       85.96298       73.21136
H        108.33945       85.18247       73.48504
H        106.85863       85.65188       73.28753
O        105.33446       88.39542       72.25035
H        105.61416       88.21134       73.18016
H        106.11147       88.12044       71.70245
O        101.18119       86.48221       72.35565
H        101.02388       85.52735       72.14980
H        102.00167       86.47770       72.90789
O        105.85736       83.12949       73.49242
H        106.42981       82.66830       72.82867
H        105.09270       82.51622       73.63161

Ca 1.0



