%chk=apoCaM-CA-Ng.loop1.water5.frame640.chk
%nprocshared=20
%mem=10GB
%nosave
#b3lyp/svp scf=(tight,noincore,xqc) Test 
#IOP(5/87=12) Density=Current Pop=(MK,readradii) iop(6/33=2) iop(6/42=6)

apoCaM-CA-Ng.loop1.water5.frame640 

   0  1 
C         63.78344       41.41594       26.20077
C         62.31713       41.15069       26.02115
O         61.97224       40.13621       25.43315
H         64.27859       41.50830       25.21344
H         63.96304       42.34392       26.77980
H         64.23714       40.57241       26.76399
N         61.39344       42.00411       26.54400
C         59.95921       41.75340       26.51537
C         59.16752       42.91093       25.91383
O         59.24753       44.02914       26.39257
C         59.43800       41.34056       27.91802
C         59.82567       42.14544       29.13967
O         59.39380       41.79557       30.22632
O         60.67013       43.19097       29.09116
H         61.73184       42.84083       27.03444
H         59.73890       40.86185       25.88989
H         59.81584       40.31512       28.11810
H         58.32766       41.27839       27.86320
N         58.29948       42.66145       24.88937
C         57.33461       43.62425       24.35191
C         56.43956       44.16874       25.45723
O         56.04143       43.43230       26.34851
C         56.48671       42.94081       23.25357
C         57.26805       42.88979       21.93444
C         56.59792       42.01051       20.87294
C         57.30135       42.16090       19.51232
N         56.79579       41.19551       18.53944
H         58.26801       41.70017       24.51742
H         57.86419       44.49252       23.89585
H         55.56711       43.51445       23.04690
H         56.17262       41.93286       23.60201
H         58.28735       42.49452       22.11269
H         57.34267       43.93629       21.56730
H         55.52956       42.28879       20.74885
H         56.65964       40.95560       21.21884
H         58.38996       41.99838       19.61807
H         57.14280       43.19601       19.13289
H         57.26352       41.36396       17.61894
H         57.02797       40.22593       18.85712
H         55.76225       41.29600       18.42432
N         56.10876       45.49193       25.44278
C         55.46039       46.21412       26.53087
C         54.02810       46.68895       26.26391
O         53.55071       47.42057       27.12213
C         56.33524       47.45707       26.85583
C         57.71586       47.04675       27.24601
O         57.87324       46.30871       28.35424
O         58.67908       47.34140       26.55566
H         56.43605       46.04942       24.64700
H         55.40463       45.57627       27.44180
H         55.91162       48.03773       27.70415
H         56.37396       48.12207       25.96494
N         53.20385       46.34391       25.22634
C         53.41546       45.37824       24.16079
C         54.19184       45.88203       22.96130
O         54.16357       45.20013       21.94588
H         52.24671       46.73097       25.27116
H         52.40533       45.15312       23.75126
H         53.79644       44.41508       24.55801
N         54.91474       47.03402       22.98582
C         55.68399       47.52416       21.84663
C         57.17044       47.36597       22.10137
O         57.63786       47.77955       23.15525
C         55.33712       48.99510       21.53154
C         55.70946       49.97639       22.61836
O         56.55008       50.83396       22.39951
O         55.10888       49.93759       23.82271
H         54.96595       47.55945       23.86615
H         55.43335       46.94827       20.92777
H         54.25167       49.08708       21.31578
H         55.89019       49.27154       20.60591
N         57.99090       46.84199       21.14206
C         59.43396       46.76510       21.31206
C         60.03248       45.45807       20.85405
O         59.34284       44.62352       20.28707
H         57.59142       46.58931       20.22399
H         59.71716       46.93010       22.37387
H         59.90762       47.56216       20.70091
N         61.36533       45.25789       21.04034
C         62.12235       44.08023       20.60434
C         63.61933       44.27241       20.82283
O         64.04187       45.21876       21.47914
C         61.68046       42.76782       21.32829
C         61.63965       42.92156       22.85437
O         60.42760       42.35605       20.86971
H         61.87133       46.03114       21.49954
H         61.98781       43.96674       19.50481
H         62.40843       41.96368       21.07077
H         60.34757       41.38360       21.06078
H         62.63375       43.21518       23.24969
H         60.88793       43.68472       23.14924
H         61.34654       41.95599       23.31757
N         64.49137       43.37193       20.29680
C         65.92887       43.44152       20.51950
C         66.47715       44.70238       19.86313
O         67.10224       45.51039       20.53319
C         66.67711       42.17439       19.99055
C         66.00221       40.81984       20.36362
C         68.13379       42.19095       20.49596
C         65.68654       40.62815       21.84849
H         64.10188       42.60399       19.73317
H         66.09980       43.47281       21.62036
H         66.70328       42.19886       18.87865
H         66.65104       39.98598       20.01724
H         65.05125       40.70344       19.80617
H         68.69267       41.31652       20.10173
H         68.65997       43.10916       20.16224
H         68.16899       42.15973       21.60611
H         64.97074       41.40037       22.20051
H         65.20569       39.63637       21.98901
H         66.60517       40.66253       22.46579
N         66.21892       44.93831       18.54396
C         66.65568       46.12018       17.80803
C         67.37956       45.69130       16.54496
O         66.84720       44.88855       15.79243
C         65.44041       46.99816       17.43571
C         64.81219       47.62059       18.68705
O         65.86217       48.03854       16.58853
H         65.63471       44.25676       18.03579
H         67.33362       46.75531       18.42097
H         64.69123       46.36058       16.90838
H         65.07904       48.29900       16.03628
H         63.94614       48.25322       18.40130
H         64.46264       46.83850       19.38867
H         65.55725       48.26391       19.20613
N         68.58965       46.23932       16.24033
C         69.36380       45.93622       15.03612
C         70.67815       46.70971       15.11531
O         71.73874       46.10185       15.10637
C         68.57941       46.26048       13.71812
C         69.33200       45.73202       12.48537
O         68.33861       47.64047       13.60118
H         68.98119       46.91482       16.91497
H         69.58173       44.84437       15.03587
H         67.60243       45.73731       13.72522
H         67.90677       47.80371       12.72211
H         68.73997       45.92723       11.56464
H         70.32417       46.21599       12.37985
H         69.46624       44.63191       12.56872
N         70.65357       48.06867       15.24367
C         71.81843       48.92666       15.38998
C         71.67406       49.72387       16.67409
O         70.65300       50.37544       16.85518
C         71.88042       49.88028       14.17695
C         73.01199       50.92831       14.22290
C         74.42299       50.31606       14.22029
C         75.53943       51.37767       14.23421
N         75.53108       52.22046       13.03587
H         69.73949       48.54359       15.25875
H         72.75393       48.32849       15.41020
H         70.91862       50.43565       14.10940
H         71.98531       49.27545       13.24954
H         72.89074       51.57848       15.11652
H         72.88784       51.56072       13.32043
H         74.54804       49.66527       13.32823
H         74.55486       49.69260       15.12852
H         76.51554       50.84618       14.28735
H         75.44975       52.01509       15.14205
H         76.36932       52.84506       13.05427
H         75.57266       51.62737       12.17546
H         74.68150       52.82732       13.01300
N         72.68709       49.77708       17.58296
C         72.61459       50.62117       18.76813
C         71.61028       50.07724       19.78391
O         70.67657       50.80476       20.09053
C         74.02466       50.89457       19.33450
C         73.99617       51.90093       20.49440
C         75.39041       52.27657       20.90625
O         76.24195       51.33580       21.35676
O         75.75930       53.43815       20.83198
H         73.56537       49.27692       17.37711
H         72.26556       51.62850       18.43961
H         74.62588       51.33842       18.50899
H         74.54079       49.97045       19.64705
H         73.46261       51.46522       21.36586
H         73.45523       52.81895       20.17293
N         71.67344       48.83688       20.35417
C         72.68189       47.83743       20.07674
H         73.67975       48.17944       20.40116
H         72.45786       46.91474       20.65380
H         72.68200       47.57338       19.00011
H         70.93169       48.57373       21.02245
Ca        59.74246       45.18226       28.76296
O         63.15427       44.66443       28.23393
H         63.64750       44.65850       27.37518
H         63.54505       43.91861       28.75413
O         61.77537       46.38651       25.48242
H         61.39568       46.98271       24.78891
H         62.51122       45.90856       25.02339
O         63.20051       47.51615       28.22066
H         63.88297       47.23043       27.56275
H         63.48163       48.42572       28.49004
O         60.68189       46.42840       31.13585
H         60.43633       45.51497       31.43029
H         61.31472       46.75149       31.82372
O         60.41406       48.66272       28.70845
H         59.54964       49.06769       28.97069
H         61.08806       49.35418       28.92665

Ca 1.0



