%chk=apoCaM-CA-Ng.loop1.water4.frame347.chk
%nprocshared=20
%mem=10GB
%nosave
#b3lyp/svp scf=(tight,noincore,xqc) Test 
#IOP(5/87=12) Density=Current Pop=(MK,readradii) iop(6/33=2) iop(6/42=6)

apoCaM-CA-Ng.loop1.water4.frame347 

   0  1 
C         72.75181       78.94670       54.97286
C         71.90749       80.17495       54.78817
O         72.41492       81.17981       54.31269
H         73.59772       79.17291       55.65338
H         72.16318       78.11086       55.40874
H         73.14704       78.61619       53.98949
N         70.59031       80.15492       55.12520
C         69.68849       81.28448       54.92085
C         69.93170       82.45159       55.88196
O         69.14686       83.37932       55.82389
C         68.22117       80.81447       55.08950
C         67.85059       79.72502       54.12153
O         67.43269       78.52958       54.57959
O         67.90735       79.92418       52.91829
H         70.19636       79.27004       55.48166
H         69.79117       81.64550       53.87357
H         67.53134       81.66188       54.89799
H         68.05975       80.45909       56.13127
N         70.92175       82.49446       56.81932
C         70.98041       83.54798       57.84086
C         72.27459       84.33986       57.82280
O         73.30754       83.72189       57.60061
C         70.84648       82.87667       59.22057
C         69.45478       82.26713       59.43218
C         69.38983       81.54900       60.78259
C         67.97594       81.03325       61.06941
N         67.94149       80.29311       62.33002
H         71.60490       81.72610       56.88062
H         70.15922       84.25966       57.70349
H         71.01551       83.62082       60.02697
H         71.63050       82.09249       59.31937
H         69.21877       81.53857       58.62629
H         68.70040       83.08360       59.40335
H         69.68537       82.24787       61.59597
H         70.10388       80.69612       60.76687
H         67.64099       80.36620       60.24457
H         67.27738       81.89823       61.12891
H         66.96137       79.98280       62.51899
H         68.55658       79.44952       62.26321
H         68.26352       80.90179       63.11740
N         72.37536       85.66646       58.19189
C         71.31640       86.64085       58.52711
C         70.31913       86.17041       59.58670
O         69.25236       85.69764       59.21963
C         70.58665       87.18993       57.28193
C         71.51046       87.92265       56.34900
O         72.27864       88.93302       56.80037
O         71.53544       87.63837       55.16535
H         73.33576       86.04035       58.25596
H         71.81488       87.54269       58.94645
H         69.83607       87.93304       57.62795
H         70.04861       86.38473       56.73859
N         70.51620       86.30171       60.92724
C         71.63786       86.99724       61.54212
C         71.65267       86.81404       63.05561
O         70.88262       86.01638       63.57145
H         69.77730       85.91203       61.53197
H         71.55677       88.07257       61.28612
H         72.59682       86.59791       61.14940
N         72.54035       87.45890       63.86415
C         73.47229       88.49209       63.42159
C         72.75739       89.81204       63.12479
O         71.57876       89.94730       63.42817
C         74.57326       88.72773       64.49433
C         74.07212       89.27697       65.81347
O         74.50104       90.47858       66.24299
O         73.31262       88.63203       66.51831
H         72.54954       87.16336       64.85011
H         73.98722       88.12559       62.50702
H         75.31833       89.44358       64.08752
H         75.10868       87.77279       64.68637
N         73.44868       90.85454       62.57610
C         72.92092       92.20695       62.43117
C         71.75148       92.39288       61.47896
O         71.27627       93.51585       61.39516
H         74.43848       90.70931       62.32549
H         73.73918       92.87089       62.07676
H         72.61140       92.56421       63.43743
N         71.21901       91.37471       60.74764
C         70.04145       91.52522       59.89385
C         68.92685       90.68837       60.48234
O         69.15834       89.53185       60.80697
C         70.34653       91.09443       58.44605
C         71.39584       92.00676       57.79980
O         69.16291       91.16092       57.68956
H         71.63412       90.43612       60.81443
H         69.69471       92.58194       59.84925
H         70.71891       90.04726       58.47354
H         69.27627       90.54883       56.91605
H         71.03069       93.05672       57.77396
H         72.35259       91.97013       58.36042
H         71.58684       91.68064       56.75531
N         67.67367       91.21258       60.62649
C         66.57763       90.48689       61.25861
C         65.59691       89.96202       60.21550
O         64.40109       90.14394       60.36502
C         65.89276       91.36077       62.36556
C         65.30942       92.68989       61.79357
C         66.87863       91.64089       63.51386
C         64.39153       93.42886       62.76770
H         67.49134       92.15087       60.24395
H         66.96673       89.56617       61.74647
H         65.05742       90.75626       62.78398
H         64.69426       92.48247       60.89558
H         66.12555       93.37765       61.48729
H         67.73595       92.25260       63.16025
H         66.38096       92.17627       64.34765
H         67.26724       90.68587       63.92567
H         63.98811       94.33700       62.27004
H         63.53696       92.77896       63.05255
H         64.93166       93.75343       63.67826
N         66.05373       89.20556       59.17158
C         65.17788       88.56911       58.18214
C         65.96567       87.58249       57.33931
O         67.02337       87.92399       56.83032
C         64.42561       89.54682       57.22980
C         65.32535       90.35835       56.28095
O         63.54217       90.38541       57.93035
H         67.06583       89.02085       59.12421
H         64.40082       87.99381       58.73168
H         63.78772       88.91459       56.57138
H         64.02694       91.21423       58.18080
H         66.01492       91.01101       56.85439
H         65.91339       89.69574       55.61509
H         64.68577       90.98359       55.62330
N         65.47458       86.33016       57.12766
C         66.17841       85.36351       56.29914
C         66.27540       85.83033       54.85429
O         65.39788       86.53604       54.37422
C         65.52360       83.95405       56.35447
C         64.12218       83.86877       55.71694
O         65.50646       83.46960       57.67516
H         64.58392       86.06943       57.57048
H         67.20544       85.25567       56.71498
H         66.16346       83.26433       55.76919
H         64.76462       83.91409       58.16159
H         63.39964       84.53902       56.22571
H         64.16154       84.13772       54.64030
H         63.74669       82.82553       55.78593
N         67.26542       85.32680       54.07357
C         67.32597       85.44794       52.63387
C         68.77503       85.65415       52.20332
O         69.06504       86.67154       51.59043
C         66.69732       84.15547       52.06383
C         66.59275       84.07434       50.53446
C         65.73502       85.17033       49.87562
C         64.25888       85.14917       50.31402
N         63.49462       86.17754       49.60707
H         67.92357       84.68550       54.50690
H         66.71115       86.31220       52.30028
H         65.67885       84.04415       52.49431
H         67.27922       83.27782       52.41985
H         66.15420       83.08475       50.27636
H         67.61623       84.11189       50.10640
H         65.77066       85.00124       48.77769
H         66.17485       86.16843       50.07782
H         64.17408       85.33324       51.40646
H         63.81976       84.15103       50.09078
H         63.54720       86.02161       48.57409
H         62.49314       86.12948       49.90421
H         63.87060       87.12556       49.83953
N         69.73661       84.72142       52.49248
C         71.14071       84.85354       52.11495
C         71.47487       83.79467       51.08701
O         71.37780       82.61056       51.38197
C         72.06191       84.72914       53.36075
C         73.56947       84.75765       53.01551
C         73.98188       86.01205       52.29230
O         74.24845       85.96357       51.10229
O         74.12401       87.18039       52.94764
H         69.46063       83.85882       52.98289
H         71.32239       85.85170       51.66294
H         71.85340       83.76831       53.87870
H         71.82454       85.53783       54.07188
H         73.78571       83.88080       52.36895
H         74.19040       84.64039       53.93012
N         71.89464       84.16516       49.84639
C         72.26037       83.20351       48.83251
H         73.11743       82.59135       49.18518
H         71.39663       82.54527       48.60318
H         72.56246       83.73507       47.90479
H         71.96471       85.16650       49.60997
Ca        74.33666       87.26601       55.19599
O         76.30005       89.96430       53.25356
H         76.82153       89.70007       52.45444
H         76.13744       90.93370       53.13371
O         73.08157       90.14960       52.93772
H         73.36039       91.05151       52.63861
H         72.60763       89.76507       52.15831
O         74.31327       91.22798       55.56416
H         74.35236       91.96792       54.90728
H         74.36989       91.67608       56.44498
O         77.32049       86.87298       53.98181
H         77.99519       87.13755       53.30743
H         76.66186       86.33702       53.47348

Ca 1.0



