%chk=apoCaM-CA-Ng.loop2.water4.frame91.chk
%nprocshared=20
%mem=10GB
%nosave
#b3lyp/svp scf=(tight,noincore,xqc) Test 
#IOP(5/87=12) Density=Current Pop=(MK,readradii) iop(6/33=2) iop(6/42=6)

apoCaM-CA-Ng.loop2.water4.frame91 

   -2  1 
C         55.07487       51.44552       11.01508
C         56.13229       52.43973       10.63474
O         56.07081       52.99838        9.54856
H         54.27118       51.40730       10.24917
H         55.53201       50.43804       11.10718
H         54.62396       51.72921       11.98967
N         57.12876       52.73535       11.51348
C         58.18890       53.69193       11.21592
C         59.19999       53.10795       10.23439
O         59.86668       53.87122        9.54972
C         58.89809       54.09836       12.52528
C         59.90608       55.19628       12.32909
O         61.19549       54.99602       12.66084
O         59.55676       56.28110       11.89101
H         57.10052       52.29212       12.44549
H         57.71765       54.61057       10.79643
H         59.39307       53.20771       12.97182
H         58.13641       54.46793       13.24621
N         59.40504       51.75697       10.16575
C         60.41732       51.10110        9.34514
C         60.23201       51.42848        7.87118
O         61.14147       51.94717        7.23754
C         61.82176       51.41690        9.88553
H         58.83062       51.13691       10.75440
H         60.28884       50.00206        9.46028
H         62.07400       52.49286        9.78977
H         61.87155       51.13903       10.96179
H         62.58402       50.81536        9.34569
N         59.03495       51.15693        7.27324
C         58.69709       51.45872        5.88357
C         58.85566       52.95442        5.62624
O         59.52326       53.34757        4.67854
C         59.51869       50.56000        4.92501
C         59.11271       50.68293        3.47731
O         59.95313       51.03085        2.66299
O         57.86897       50.38829        3.02859
H         58.29224       50.73712        7.85279
H         57.62420       51.20087        5.74458
H         59.41956       49.50089        5.21803
H         60.59962       50.79853        5.02397
N         58.30925       53.85396        6.49676
C         58.52477       55.28943        6.38297
C         57.73882       55.95300        5.26608
O         58.00747       57.11240        4.98676
H         57.81169       53.50210        7.32812
H         59.61432       55.46587        6.24216
H         58.23260       55.78691        7.33221
N         56.73324       55.30824        4.60919
C         55.97444       55.90031        3.50526
C         55.23599       57.16422        3.92173
O         54.50385       57.14223        4.90151
C         54.94510       54.90775        2.93770
C         55.59363       53.69941        2.30996
N         55.49185       53.49082        0.97829
O         56.21388       52.90366        2.99880
H         56.49568       54.35299        4.90845
H         56.67446       56.14652        2.67605
H         54.36260       55.44205        2.15504
H         54.23679       54.58727        3.72400
H         54.98160       54.15064        0.37475
H         55.93915       52.67602        0.54165
N         55.37029       58.30576        3.18436
C         54.70279       59.55598        3.51167
C         53.20027       59.50636        3.34284
O         52.69987       58.70352        2.56593
H         55.99351       58.30010        2.36263
H         55.06592       60.35655        2.83057
H         54.96988       59.84968        4.54715
N         52.42009       60.41122        4.00794
C         50.97211       60.51142        3.81881
C         50.22639       59.23802        4.21982
O         49.05253       59.13813        3.89044
C         50.37307       61.75911        4.53354
C         50.38123       61.66599        6.06995
O         51.01051       62.93612        4.09350
H         52.89441       61.07826        4.63239
H         50.80821       60.66362        2.72760
H         49.30442       61.84790        4.23851
H         51.86024       63.04588        4.59507
H         51.41150       61.55471        6.46550
H         49.92912       62.58439        6.50236
H         49.77214       60.80241        6.40429
N         50.83189       58.22583        4.91401
C         50.18981       56.93880        5.18810
C         50.98237       55.81218        4.55750
O         52.06416       56.04927        4.03832
C         50.03265       56.66835        6.71549
C         51.38516       56.73191        7.48043
C         48.98764       57.61558        7.31695
C         51.28888       56.21072        8.91615
H         51.80268       58.34728        5.23398
H         49.18351       56.90184        4.71784
H         49.62171       55.64171        6.82333
H         51.76721       57.77578        7.49737
H         52.13968       56.09857        6.96594
H         49.35343       58.66105        7.31602
H         48.04655       57.55954        6.72919
H         48.73646       57.31604        8.35397
H         52.28478       56.27677        9.40335
H         50.57666       56.80449        9.52214
H         50.97085       55.14599        8.91192
N         50.49073       54.53769        4.56999
C         51.26804       53.41132        4.08267
C         50.36419       52.25398        3.66836
O         50.55217       51.13627        4.12428
C         52.30450       53.02833        5.17144
C         53.30403       51.98547        4.75522
O         53.30012       51.51244        3.62929
O         54.23247       51.58193        5.64248
H         49.54797       54.36453        4.94955
H         51.79278       53.72191        3.15110
H         51.76032       52.67147        6.07354
H         52.88469       53.92656        5.46969
N         49.37750       52.45971        2.74984
C         48.61794       51.37906        2.12276
C         47.94359       50.45194        3.13579
O         47.19949       50.94685        3.97144
C         47.53754       51.94599        1.17928
C         46.93909       50.82210        0.37036
C         47.60953       50.35119       -0.77129
C         45.74790       50.19823        0.77687
C         47.09201       49.27690       -1.49913
C         45.24103       49.11448        0.05339
C         45.91107       48.65579       -1.08457
H         49.21524       53.42548        2.42407
H         49.33706       50.81896        1.49505
H         47.96172       52.70109        0.48182
H         46.76013       52.46292        1.78495
H         48.53362       50.81554       -1.09374
H         45.22819       50.53302        1.66595
H         47.61216       48.92067       -2.37880
H         44.33270       48.62510        0.37934
H         45.51837       47.81600       -1.64249
N         48.10943       49.08919        3.09886
C         47.45620       48.17041        4.01933
C         48.04840       48.28337        5.40535
O         47.31691       48.13864        6.37480
C         47.69060       46.79328        3.37918
C         49.01348       46.95548        2.66821
C         48.91031       48.37494        2.11654
H         46.35377       48.31658        4.07520
H         47.61808       45.92533        4.07102
H         46.92922       46.66083        2.57772
H         49.80963       46.92416        3.43901
H         49.25159       46.18089        1.90803
H         49.94198       48.77088        2.00765
H         48.37241       48.39840        1.14560
N         49.37060       48.55298        5.57356
C         50.01205       48.62560        6.87656
C         49.43067       49.72099        7.75399
O         49.61392       49.64487        8.96135
C         51.52261       48.84077        6.69606
C         52.18241       47.63409        6.01530
C         53.61180       47.94502        5.72862
O         53.90637       48.91725        4.82995
O         54.48565       47.32184        6.30367
H         49.94893       48.70130        4.73659
H         49.84103       47.65582        7.39516
H         52.01473       48.98515        7.68183
H         51.67913       49.76130        6.09059
H         51.70601       47.36470        5.04923
H         52.09489       46.75613        6.69333
N         48.74695       50.78054        7.23747
C         48.12854       51.77784        8.08462
H         47.24103       51.33450        8.58613
H         48.84347       52.14115        8.85320
H         47.79389       52.64167        7.47290
H         48.66862       50.89884        6.21794
Ca        55.86806       49.68524        3.90470
O         56.27434       50.20122        0.72760
H         57.14930       50.63365        0.55729
H         56.16855       49.55854       -0.01592
O         56.01537       47.36837        2.14767
H         55.39476       46.75216        2.61186
H         56.84503       46.84391        2.02146
O         57.45657       48.30747        5.57053
H         57.91651       47.59612        6.07215
H         56.50899       48.06460        5.62023
O         53.35429       49.03357        1.74246
H         53.47702       48.33150        1.05525
H         52.62198       48.69465        2.31630

Ca 1.0



