%chk=apoCaM-CA-Ng.loop1.water2.frame1302.chk
%nprocshared=20
%mem=10GB
%nosave
#b3lyp/svp scf=(tight,noincore,xqc) Test 
#IOP(5/87=12) Density=Current Pop=(MK,readradii) iop(6/33=2) iop(6/42=6)

apoCaM-CA-Ng.loop1.water2.frame1302 

   0  1 
C         45.05982       20.92238       61.05684
C         44.64595       20.62382       62.46332
O         44.20860       21.52160       63.16901
H         46.12614       20.65508       60.89863
H         44.42744       20.30892       60.38169
H         44.90915       21.99500       60.81496
N         44.76013       19.35059       62.93017
C         44.28580       18.91673       64.23996
C         45.42004       18.93166       65.24456
O         45.66348       17.93923       65.91856
C         43.54690       17.55895       64.08707
C         44.39459       16.47945       63.45019
O         44.26903       16.22748       62.26107
O         45.27169       15.76964       64.18433
H         45.17963       18.65314       62.29968
H         43.54767       19.65096       64.62165
H         42.67807       17.73981       63.41777
H         43.13608       17.18747       65.05055
N         46.16134       20.07027       65.40082
C         47.31816       20.15942       66.26837
C         46.98623       20.46975       67.71751
O         47.80372       20.10562       68.54189
C         48.39442       21.10720       65.70500
C         48.94151       20.58713       64.36348
C         50.05919       21.48395       63.81687
C         50.64985       20.89148       62.52539
N         51.40329       21.89614       61.77563
H         45.96287       20.87322       64.79021
H         47.78740       19.14780       66.29851
H         49.24234       21.15443       66.42111
H         47.97180       22.13019       65.58861
H         48.11969       20.55205       63.61266
H         49.33358       19.55683       64.50499
H         50.88028       21.59925       64.56160
H         49.62141       22.48408       63.61689
H         49.83717       20.51591       61.86680
H         51.30592       20.02885       62.78721
H         52.13021       22.35105       62.37273
H         51.86138       21.43870       60.95435
H         50.73802       22.62059       61.41669
N         45.83834       21.06420       68.17545
C         44.80961       21.79909       67.43450
C         43.53318       20.99175       67.23328
O         43.50237       19.80673       67.57029
C         44.54436       23.15494       68.15191
C         44.29045       22.93096       69.59479
O         43.18843       22.22705       69.92104
O         45.14615       23.23613       70.40653
H         45.75280       21.04126       69.20561
H         45.15292       22.07862       66.42429
H         43.67714       23.70890       67.73941
H         45.44098       23.79755       68.03881
N         42.46496       21.53333       66.60126
C         41.25679       20.80014       66.26596
C         40.35998       20.45405       67.44385
O         40.61232       20.84853       68.57074
H         42.53227       22.50744       66.25332
H         41.52642       19.87932       65.70931
H         40.64148       21.42990       65.58710
N         39.21804       19.75692       67.17071
C         38.09263       19.53439       68.09201
C         36.81382       19.32793       67.26657
O         36.91369       18.86154       66.13938
C         38.27145       18.28801       68.98982
C         39.43851       18.34538       69.91920
O         40.28248       17.46689       69.87433
O         39.52130       19.31004       70.85591
H         39.09488       19.52021       66.17661
H         37.97029       20.44633       68.70818
H         38.35974       17.38358       68.34765
H         37.37349       18.15721       69.62901
N         35.55623       19.60335       67.71414
C         35.18214       20.12862       69.01258
C         35.68246       21.53108       69.25105
O         35.64179       22.35455       68.34905
H         34.77639       19.40755       67.06623
H         35.48792       19.43589       69.82356
H         34.07292       20.18277       69.04268
N         36.08196       21.88906       70.50080
C         36.53639       23.23018       70.85387
C         37.93715       23.50531       70.29327
O         38.78484       22.62616       70.29973
C         36.33596       23.49921       72.37840
C         37.02190       24.78764       72.85411
O         36.76149       22.41613       73.15629
H         36.00508       21.17858       71.24395
H         35.85051       23.97378       70.38824
H         35.23395       23.59811       72.52718
H         36.39932       22.54787       74.07215
H         38.12702       24.68736       72.78336
H         36.69539       25.65694       72.24820
H         36.76349       24.98202       73.91688
N         38.20650       24.74638       69.78005
C         39.43191       25.23057       69.13208
C         40.65805       25.13909       70.03000
O         41.05274       24.03953       70.38687
C         39.66972       24.61676       67.71233
C         38.34894       24.66979       66.89475
C         40.79606       25.41492       67.01593
C         38.44496       24.19723       65.44034
H         37.45038       25.44451       69.84059
H         39.24868       26.31076       68.93812
H         39.98317       23.55122       67.78331
H         37.93853       25.70231       66.89120
H         37.61938       24.00245       67.39874
H         41.74654       25.29823       67.57122
H         40.98611       25.06332       65.98314
H         40.54494       26.49834       66.97930
H         38.89379       23.18551       65.37185
H         37.42067       24.15534       65.00998
H         39.03018       24.91075       64.82324
N         41.31988       26.27446       70.42204
C         42.51168       26.25734       71.26948
C         42.20753       26.80439       72.66318
O         43.12053       26.90596       73.46905
C         43.70322       27.04218       70.62674
C         43.71882       27.05606       69.09205
O         44.92527       26.55239       71.12179
H         40.95608       27.19260       70.12486
H         42.83750       25.20658       71.40163
H         43.64083       28.11350       70.91315
H         44.97018       25.58842       70.89421
H         43.66711       26.03535       68.67114
H         42.85711       27.65598       68.72379
H         44.64074       27.55565       68.72309
N         40.93175       27.14556       73.02370
C         40.55436       27.64569       74.34420
C         40.94800       26.63895       75.41303
O         40.48720       25.50923       75.33255
C         39.01595       27.86025       74.39342
C         38.55182       28.44588       75.73232
O         38.62188       28.71835       73.35281
H         40.17608       27.02634       72.33671
H         41.06229       28.62043       74.51752
H         38.53975       26.86307       74.24530
H         37.62857       28.71397       73.33440
H         38.90452       27.83705       76.58992
H         38.92621       29.48502       75.84086
H         37.44150       28.45766       75.75862
N         41.77437       26.99833       76.45018
C         42.22566       26.12672       77.54740
C         42.28000       24.66307       77.12246
O         41.64085       23.80982       77.72118
C         41.30726       26.30129       78.77251
C         41.20150       27.73620       79.31949
C         40.22609       27.73216       80.51139
C         39.74284       29.11336       80.98331
N         40.81765       29.98932       81.44424
H         42.08732       27.97992       76.49006
H         43.26569       26.41963       77.81276
H         41.66307       25.63275       79.58683
H         40.28706       25.97381       78.46657
H         40.81019       28.39884       78.51987
H         42.20045       28.10673       79.64171
H         40.68766       27.17366       81.35573
H         39.30338       27.19148       80.20774
H         39.03367       28.94014       81.82380
H         39.18146       29.61448       80.16393
H         41.40509       29.50732       82.16155
H         41.40404       30.29745       80.63614
H         40.38408       30.83694       81.87990
N         42.94598       24.34965       75.98448
C         42.75853       23.09459       75.27698
C         43.22808       23.28861       73.86173
O         42.36917       23.30716       73.00500
C         43.31653       21.83766       75.97029
C         43.20485       20.56139       75.08818
C         41.79254       20.18712       74.67746
O         40.97084       19.96036       75.54721
O         41.39181       20.06478       73.38902
H         43.42613       25.12281       75.49929
H         41.66563       22.93431       75.21980
H         42.75933       21.67456       76.91834
H         44.37839       21.98471       76.24558
H         43.59533       19.71243       75.68963
H         43.85976       20.66249       74.19609
N         44.50856       23.53993       73.48859
C         45.65739       23.66456       74.34815
H         46.52403       23.98788       73.73062
H         45.48940       24.44843       75.10815
H         45.91382       22.69664       74.81585
H         44.66567       23.70626       72.49938
Ca        42.06984       21.25968       71.60924
O         42.96822       19.08007       70.57620
H         42.41938       18.38723       70.14762
H         43.48592       19.47766       69.83973
O         39.82217       22.39117       73.19018
H         40.07491       22.07859       74.08757
H         38.95126       21.96126       73.06936

Ca 1.0



