%chk=apoCaM-CA-Ng.loop3.water3.frame821.chk
%nprocshared=20
%mem=10GB
%nosave
#b3lyp/svp scf=(tight,noincore,xqc) Test 
#IOP(5/87=12) Density=Current Pop=(MK,readradii) iop(6/33=2) iop(6/42=6)

apoCaM-CA-Ng.loop3.water3.frame821 

   0  1 
C         68.90117      101.63045       82.14402
C         70.06724      102.57249       82.19349
O         71.07280      102.23102       82.79818
H         68.06280      102.05109       81.54982
H         69.22304      100.68185       81.66233
H         68.54461      101.41581       83.17124
N         70.02292      103.76408       81.53529
C         71.19577      104.62609       81.40557
C         71.35862      105.51470       82.64545
O         70.44408      105.55743       83.45616
C         71.04293      105.45979       80.10071
C         72.32378      105.68061       79.34161
O         72.40233      105.32409       78.17779
O         73.38682      106.26010       79.90885
H         69.17160      103.98444       80.99477
H         72.06778      103.96129       81.28951
H         70.51139      106.41011       80.31884
H         70.40302      104.89988       79.38095
N         72.47055      106.28904       82.83340
C         72.59427      107.29347       83.89449
C         72.59293      108.71230       83.32140
O         72.45850      109.65224       84.09405
C         73.86654      107.05411       84.73060
C         73.79024      105.73303       85.50946
C         75.03264      105.43741       86.36921
C         75.31682      106.52539       87.42043
N         76.36738      106.10268       88.34596
H         73.25382      106.19572       82.18166
H         71.70675      107.24999       84.56212
H         73.96379      107.88742       85.45718
H         74.75982      107.06003       84.06647
H         73.65567      104.89045       84.79882
H         72.90029      105.76593       86.17452
H         75.92833      105.30370       85.72327
H         74.83842      104.47645       86.89341
H         74.39251      106.73475       88.00234
H         75.63680      107.46232       86.91396
H         76.04868      105.26326       88.88293
H         77.24619      105.87792       87.82603
H         76.55882      106.87744       89.02195
N         72.71934      108.94312       81.98571
C         72.59065      110.24048       81.33574
C         71.50123      110.16747       80.25597
O         70.63372      111.02869       80.24679
C         73.95766      110.78900       80.82881
C         74.75621      109.95144       79.86252
O         74.35369      108.71717       79.54871
O         75.76868      110.40473       79.35436
H         72.90697      108.14709       81.37983
H         72.26296      111.01142       82.07048
H         74.60826      110.98111       81.70932
H         73.75072      111.76817       80.34313
N         71.43866      109.12754       79.36664
C         70.40720      108.94785       78.36246
C         70.96907      108.76460       76.96420
O         70.16131      108.56264       76.06805
H         72.11125      108.36638       79.42265
H         69.69518      109.80039       78.35405
H         69.83439      108.03029       78.61650
N         72.30847      108.84953       76.67721
C         72.82542      108.80826       75.30792
C         73.93064      107.73462       75.07550
O         73.79701      106.64064       75.92675
C         73.42450      110.19148       74.99177
C         72.43861      111.29950       75.26963
N         71.26618      111.36965       74.59961
O         72.69824      112.13459       76.12362
H         72.97559      109.05347       77.42924
H         71.99242      108.59565       74.60349
H         73.75499      110.25032       73.93480
H         74.31799      110.34166       75.64116
H         71.02793      110.67322       73.87938
H         70.59180      112.12063       74.80735
N         73.92086      107.28973       73.67106
C         75.10557      106.52692       73.25415
C         75.17877      105.16016       73.88451
O         74.19797      104.42933       73.84332
H         73.88620      108.13163       73.05226
H         76.03652      107.11213       73.42387
H         75.01674      106.35301       72.15990
N         76.34491      104.72244       74.43485
C         76.48665      103.39575       75.03120
C         75.68413      103.30867       76.31536
O         75.09275      104.29281       76.72521
C         77.98633      103.06771       75.23309
C         78.66974      103.01796       73.88096
C         79.60746      103.99570       73.50968
C         78.34179      102.00261       72.96249
C         80.18466      103.97266       72.23453
C         78.92651      101.97649       71.69360
C         79.84148      102.96485       71.32070
O         80.37743      102.93915       70.08350
H         77.17087      105.33907       74.38597
H         76.06773      102.63976       74.33152
H         78.13554      102.08618       75.73279
H         78.43623      103.84887       75.88489
H         79.87341      104.78971       74.19554
H         77.62746      101.23238       73.22592
H         80.89090      104.74370       71.95413
H         78.65885      101.19270       70.99544
H         80.99650      103.61623       69.77547
N         75.58550      102.11987       76.97359
C         74.74102      101.87837       78.13837
C         75.14625      102.75616       79.31670
O         74.85110      103.94285       79.33076
C         73.22603      102.01733       77.78538
C         72.28278      101.76502       78.99044
C         72.84196      101.12479       76.59389
C         72.34097      100.36180       79.59525
H         76.10708      101.31181       76.60410
H         74.91100      100.81632       78.42250
H         73.04059      103.05944       77.46245
H         71.23495      101.96842       78.67701
H         72.53071      102.48383       79.78795
H         73.43651      101.39645       75.69656
H         73.02173      100.05388       76.81841
H         71.77005      101.26944       76.33974
H         71.62839      100.30562       80.44540
H         72.04531       99.59436       78.85217
H         73.35461      100.13820       79.98463
N         75.83380      102.21513       80.35328
C         76.18199      102.94892       81.57264
C         77.14509      102.19343       82.48053
O         77.84283      102.83969       83.24706
C         74.92371      103.29471       82.38315
O         74.25303      102.11361       82.73705
H         76.13991      101.24823       80.20958
H         76.70017      103.88716       81.27112
H         74.25113      103.93602       81.78541
H         75.22478      103.85693       83.29611
H         73.62095      102.35298       83.46251
N         77.21991      100.82995       82.47780
C         78.14808      100.07030       83.30191
C         79.60193      100.41177       82.96173
O         79.82036      101.06712       81.95059
C         77.88207       98.58217       83.01947
H         76.57444      100.28910       81.89477
H         77.92459      100.30543       84.35893
H         78.08432       98.35716       81.94875
H         78.49653       97.91412       83.61325
H         76.82204       98.33537       83.23946
N         80.67797       99.99943       83.69993
C         80.62602       99.32760       84.99705
C         81.97136       98.68930       85.31072
O         82.96567       99.40211       85.30535
C         80.28465      100.32196       86.11505
H         81.61109      100.22579       83.31923
H         79.85529       98.55834       85.00082
H         79.30332      100.80487       85.95895
H         80.24269       99.78377       87.08768
H         81.05447      101.11935       86.18281
N         82.11718       97.37259       85.64417
C         81.02670       96.40820       85.76758
C         80.50920       95.97031       84.41266
O         79.30451       95.82888       84.26414
C         81.44722       95.17969       86.59423
C         81.84756       95.59343       88.02330
C         82.08206       94.39667       88.89378
O         81.07585       93.53511       89.13821
O         83.17289       94.21392       89.40916
H         83.06955       97.05681       85.88683
H         80.19361       96.85096       86.35950
H         82.27883       94.63024       86.10174
H         80.56592       94.50151       86.65941
H         81.03483       96.19431       88.48693
H         82.76478       96.21971       87.99184
N         81.35789       95.71735       83.37872
C         80.87365       95.32705       82.07083
H         80.20454       96.11631       81.66314
H         81.72690       95.19524       81.37222
H         80.31458       94.37001       82.13897
H         82.37402       95.82659       83.51225
Ca        74.86005      107.44013       77.77279
O         76.08512      106.90964       81.44484
H         76.68208      106.56101       82.15351
H         76.50949      107.75718       81.15846
O         77.75002      108.19280       77.02728
H         77.27344      108.97584       76.65250
H         77.93712      108.44296       77.96704
O         77.88117      105.55584       79.24783
H         78.03402      104.63635       78.91371
H         78.59117      105.69609       79.92395

Ca 1.0



