%chk=apoCaM-CA-Ng.loop4.water5.frame742.chk
%nprocshared=20
%mem=10GB
%nosave
#b3lyp/svp scf=(tight,noincore,xqc) Test 
#IOP(5/87=12) Density=Current Pop=(MK,readradii) iop(6/33=2) iop(6/42=6)

apoCaM-CA-Ng.loop4.water5.frame742 

   -3  1 
C        110.41814       27.51793        2.68466
C        111.89996       27.73367        2.67725
O        112.62674       26.82425        2.30445
H        109.93584       28.24131        1.99522
H        110.17001       26.48664        2.35079
H        110.02069       27.67064        3.70553
N        112.42258       28.94113        3.04327
C        113.84961       29.24362        3.00567
C        114.36739       28.99288        1.60663
O        115.21077       28.12673        1.41086
C        114.63484       28.45924        4.08291
C        114.21193       28.84694        5.47171
O        114.30464       30.00624        5.84364
O        113.76313       27.91234        6.32604
H        111.77618       29.69681        3.31679
H        114.00427       30.32369        3.22714
H        115.71562       28.70486        3.98848
H        114.51891       27.36350        3.94294
N        113.88695       29.74120        0.57462
C        114.30060       29.53884       -0.81063
C        115.31729       30.61644       -1.18914
O        115.44287       31.57154       -0.43378
C        113.04986       29.48813       -1.75090
C        112.35442       30.87474       -1.86545
C        112.07220       28.39410       -1.28115
C        111.21908       30.91642       -2.88988
H        113.23996       30.51191        0.79691
H        114.81890       28.56433       -0.87101
H        113.38101       29.20255       -2.76361
H        113.10376       31.62326       -2.20039
H        111.95218       31.20239       -0.88490
H        111.23258       28.27532       -1.99512
H        112.59384       27.41586       -1.21978
H        111.64894       28.63647       -0.28344
H        111.59207       30.61598       -3.89194
H        110.37815       30.25876       -2.59256
H        110.82619       31.95343       -2.95716
N        116.12510       30.56976       -2.29236
C        116.20521       29.49106       -3.27423
C        116.56152       28.14723       -2.65266
O        115.93118       27.16206       -3.01145
C        117.14731       29.85453       -4.45103
C        118.58810       30.18289       -4.14015
O        119.06474       30.20859       -2.88392
O        119.33837       30.46639       -5.05975
H        116.75744       31.37431       -2.42629
H        115.22530       29.37828       -3.77494
H        116.71912       30.74550       -4.96113
H        117.13144       29.01195       -5.17670
N        117.49438       28.03088       -1.66447
C        117.80406       26.76574       -1.02374
C        118.47942       25.81418       -1.97846
O        119.55762       26.13176       -2.46053
H        117.96331       28.87012       -1.30144
H        116.87122       26.33040       -0.60373
H        118.50247       26.94041       -0.17669
N        117.90588       24.61473       -2.27963
C        118.53095       23.61921       -3.14501
C        117.72909       23.36511       -4.41104
O        118.17797       22.56053       -5.21559
C        118.78285       22.30398       -2.36497
C        117.53719       21.60148       -1.88107
O        117.28309       20.47421       -2.27397
O        116.72372       22.18062       -0.97805
H        116.98571       24.40081       -1.87044
H        119.52819       23.97824       -3.48131
H        119.42947       22.51703       -1.48730
H        119.34456       21.60872       -3.02871
N        116.55759       24.01410       -4.68639
C        115.79863       23.75683       -5.89916
C        115.17680       22.37455       -5.93360
O        114.61346       22.03149       -6.96249
H        116.19550       24.73262       -4.04607
H        116.47174       23.89173       -6.77427
H        114.97164       24.49390       -5.98933
N        115.20515       21.53620       -4.85094
C        114.65039       20.18546       -4.83225
C        113.13145       20.15730       -4.97849
O        112.58242       19.06502       -5.02150
C        115.36656       19.27603       -5.86130
C        116.88924       19.27061       -5.62220
C        117.65970       18.36214       -6.54453
N        119.00831       18.30384       -6.44481
O        117.08412       17.68087       -7.38047
H        115.64922       21.84955       -3.97903
H        114.85812       19.74140       -3.83221
H        115.15424       19.60646       -6.89945
H        114.98465       18.23755       -5.74632
H        117.09688       18.95607       -4.57694
H        117.27865       20.29589       -5.77014
H        119.50778       18.87710       -5.74800
H        119.55650       17.69062       -7.06557
N        112.37862       21.30028       -4.98405
C        110.91914       21.30409       -5.04641
C        110.30645       21.82148       -3.75040
O        109.08542       21.83506       -3.66579
C        110.41022       22.12033       -6.26948
C        110.78676       23.61147       -6.19994
C        110.91077       21.50903       -7.58454
H        112.84082       22.21266       -4.88932
H        110.53673       20.26600       -5.16281
H        109.29876       22.05790       -6.28186
H        110.34370       24.15339       -7.06237
H        110.38802       24.07316       -5.27226
H        111.88587       23.75810       -6.23169
H        110.59003       20.44819       -7.65977
H        110.48391       22.06052       -8.44938
H        112.01775       21.55363       -7.64839
N        111.06912       22.23348       -2.69161
C        110.49837       22.68245       -1.42738
C        110.86388       21.71738       -0.31700
O        111.59238       20.76045       -0.54847
C        110.94871       24.12497       -1.12656
C        110.39342       25.08348       -2.15074
N        109.05641       25.27571       -2.25973
O        111.15496       25.69697       -2.88231
H        112.09715       22.20950       -2.75079
H        109.38811       22.66110       -1.47083
H        112.06061       24.16401       -1.12004
H        110.58965       24.45708       -0.12924
H        108.39813       24.77857       -1.64164
H        108.67459       25.93246       -2.95615
N        110.27272       21.85597        0.90079
C        110.35695       20.83346        1.94498
C        109.27033       21.03098        2.99255
O        108.52025       21.99295        2.89405
C        111.76704       20.74859        2.58504
C        112.07101       21.80311        3.63203
C        112.12983       23.17242        3.32180
C        112.31540       21.39461        4.95856
C        112.43440       24.10538        4.32375
C        112.61879       22.32732        5.94947
C        112.68526       23.68282        5.63662
O        112.99034       24.56637        6.60665
H        109.63139       22.65504        1.01065
H        110.14560       19.85624        1.45599
H        112.55574       20.74924        1.80484
H        111.82984       19.75403        3.07682
H        111.94835       23.51803        2.31243
H        112.27626       20.34809        5.23249
H        112.48155       25.15591        4.08829
H        112.80697       21.99511        6.96286
H        113.05438       25.51402        6.43576
N        109.12665       20.16637        4.03785
C        108.14249       20.39123        5.08843
C        108.86886       20.71103        6.38851
O        109.42413       19.80342        6.98892
C        107.10395       19.24876        5.17674
C        107.67520       17.83695        5.39188
C        106.56644       16.82445        5.46356
O        106.40490       16.07931        6.57373
O        105.81119       16.66671        4.51703
H        109.76654       19.36250        4.11972
H        107.52859       21.25929        4.83066
H        106.53697       19.23900        4.21835
H        106.38686       19.48834        5.99311
H        108.25065       17.78949        6.33633
H        108.34530       17.56228        4.55000
N        109.01560       21.98979        6.86236
C        108.54785       23.19448        6.17716
C        107.03426       23.30725        6.21607
O        106.45776       23.29752        7.29509
C        109.18510       24.46849        6.77822
C        108.79974       25.70384        5.93690
C        109.47874       27.00287        6.35624
O        109.25342       27.30102        7.70215
O        110.86158       26.95015        6.16346
H        109.58108       22.11250        7.71760
H        108.91960       23.15758        5.13093
H        110.28671       24.35175        6.75227
H        108.87554       24.60407        7.83747
H        107.70329       25.86518        5.99601
H        109.06382       25.52445        4.87151
N        106.33114       23.46104        5.05958
C        104.89360       23.60162        5.03754
H        104.59235       24.49737        5.62073
H        104.54502       23.72735        3.98984
H        104.41748       22.69507        5.46593
H        106.83259       23.49661        4.15991
Ca       111.36016       28.07279        8.06874
O        111.00848       28.92344       10.85909
H        110.81143       28.00726       11.17896
H        110.55689       29.51799       11.50859
O        112.40842       26.01742        9.80779
H        113.26946       26.47930        9.96743
H        112.65482       25.18840        9.32700
O        114.08973       29.42004        9.33687
H        114.76929       29.91087        8.80997
H        114.60386       28.72185        9.81485
O        111.65448       31.50094        8.28105
H        111.45612       32.15431        8.99823
H        110.95341       31.65991        7.60011
O        108.62060       30.15706        8.29526
H        107.88511       29.49605        8.24672
H        108.66006       30.41344        9.25064

Ca 1.0



