%chk=apoCaM-CA-Ng.loop3.water3.frame864.chk
%nprocshared=20
%mem=10GB
%nosave
#b3lyp/svp scf=(tight,noincore,xqc) Test 
#IOP(5/87=12) Density=Current Pop=(MK,readradii) iop(6/33=2) iop(6/42=6)

apoCaM-CA-Ng.loop3.water3.frame864 

   0  1 
C         63.63458       64.31306       83.79713
C         64.24625       65.52863       83.17063
O         65.42018       65.49590       82.84895
H         62.79935       63.96077       83.15282
H         64.38228       63.49230       83.86114
H         63.25149       64.54487       84.80947
N         63.48999       66.62937       82.91183
C         63.94494       67.68182       82.00405
C         64.67258       68.80578       82.74848
O         64.38396       69.02245       83.91656
C         62.72060       68.14001       81.16680
C         63.01855       68.69394       79.80046
O         62.18488       68.58948       78.91458
O         64.22726       69.17324       79.49348
H         62.48868       66.58125       83.15975
H         64.63847       67.21599       81.28066
H         62.04044       68.79890       81.74846
H         62.13547       67.22148       80.94190
N         65.60379       69.58483       82.11620
C         66.25910       70.75446       82.71082
C         65.58643       72.04166       82.23668
O         65.65591       73.03414       82.94903
C         67.78156       70.72711       82.39175
C         68.52380       72.02898       82.75789
C         70.04766       71.97368       82.54349
C         70.74181       71.04705       83.55399
N         72.19740       71.16434       83.46913
H         65.82865       69.37496       81.13759
H         66.12797       70.73927       83.81546
H         67.93420       70.58192       81.30542
H         68.21791       69.85244       82.91530
H         68.32134       72.30751       83.81275
H         68.13545       72.83913       82.10115
H         70.43673       73.00329       82.70299
H         70.29481       71.67522       81.49942
H         70.44578       69.99170       83.37541
H         70.42594       71.33464       84.58120
H         72.48974       72.14747       83.67708
H         72.63010       70.53331       84.18211
H         72.53256       70.88860       82.51822
N         64.90688       72.09238       81.05911
C         64.20054       73.25985       80.54807
C         62.71094       72.99535       80.34510
O         62.01379       73.91985       79.94929
C         64.86123       73.72159       79.22617
C         65.14736       72.62529       78.20077
O         66.17881       72.68581       77.55149
O         64.35510       71.52803       78.08197
H         64.89626       71.25811       80.47158
H         64.25745       74.10517       81.27209
H         65.83919       74.18156       79.49347
H         64.26535       74.54137       78.76666
N         62.13651       71.78562       80.60764
C         60.71691       71.52229       80.42497
C         60.23813       71.56103       78.98138
O         59.04068       71.40197       78.79214
H         62.70574       71.02701       80.99826
H         60.13907       72.26018       81.02361
H         60.48013       70.51061       80.81894
N         61.07665       71.76187       77.91844
C         60.60725       71.86752       76.53761
C         61.22234       70.82061       75.62820
O         62.18381       70.17486       76.00380
C         60.97937       73.25785       75.97997
C         60.45089       74.37525       76.83904
N         59.12541       74.49894       77.07289
O         61.23090       75.17679       77.33208
H         62.07635       71.88385       78.08449
H         59.50755       71.72789       76.49998
H         60.58024       73.37374       74.94995
H         62.09072       73.34405       75.92657
H         58.45485       73.83037       76.66821
H         58.76999       75.26085       77.66796
N         60.70173       70.62341       74.38303
C         61.30375       69.79248       73.35136
C         61.61662       68.38307       73.79317
O         60.72374       67.65530       74.20227
H         59.84378       71.13386       74.12736
H         62.23814       70.28880       73.01291
H         60.62018       69.75076       72.47679
N         62.90635       67.94881       73.73398
C         63.35620       66.62255       74.12027
C         64.02549       66.71655       75.52375
O         65.05503       67.67222       75.48933
C         64.30549       66.07073       73.00623
C         63.56389       65.77752       71.71565
C         62.65186       64.70895       71.66784
C         63.77445       66.54335       70.55268
C         61.94947       64.42202       70.49331
C         63.06069       66.26017       69.37895
C         62.14326       65.20380       69.34688
O         61.45434       64.95071       68.21458
H         63.63230       68.61109       73.41753
H         62.49771       65.92764       74.24210
H         64.80330       65.12701       73.31751
H         65.11565       66.81385       72.83096
H         62.49037       64.09108       72.54156
H         64.47631       67.36761       70.55337
H         61.25205       63.59372       70.47717
H         63.21536       66.86466       68.49300
H         60.79575       64.24275       68.15892
N         64.55662       65.39291       75.92128
C         64.80111       65.11841       77.35837
C         65.81386       66.08953       77.93163
O         65.55474       67.28030       77.97049
C         63.52129       65.03989       78.25531
C         63.86922       64.61480       79.71977
C         62.45336       64.09114       77.68364
C         64.38241       63.17761       79.90463
H         63.96715       64.62157       75.53248
H         65.25022       64.10454       77.38035
H         63.07082       66.05394       78.30692
H         62.96269       64.72347       80.35340
H         64.63690       65.29756       80.12900
H         62.07117       64.46342       76.71271
H         62.86614       63.07107       77.53269
H         61.58707       64.02722       78.37677
H         65.30924       62.98891       79.32821
H         64.61405       63.00600       80.97791
H         63.61005       62.43670       79.61276
N         66.97934       65.63123       78.45811
C         67.98881       66.53002       79.00965
C         69.41484       66.08024       78.77252
O         70.31869       66.84277       79.09135
C         67.79739       66.63875       80.52177
O         68.11494       65.40944       81.12617
H         67.06200       64.61495       78.56971
H         67.87475       67.52240       78.53378
H         66.75670       66.95629       80.73370
H         68.46640       67.41596       80.94635
H         67.30337       65.06267       81.56427
N         69.70875       64.82222       78.34711
C         71.06144       64.31296       78.34014
C         71.89756       65.00169       77.27941
O         71.32285       65.51709       76.32994
C         71.00824       62.80885       78.08505
H         68.96498       64.15954       78.10970
H         71.48150       64.46533       79.35258
H         70.53393       62.58930       77.10531
H         72.01265       62.39568       78.08425
H         70.42472       62.30883       78.88937
N         73.26114       65.01756       77.30242
C         74.09843       64.54183       78.40373
C         75.52046       64.36160       77.90375
O         76.06496       65.32254       77.37597
C         74.11000       65.55838       79.55664
H         73.72847       65.42796       76.47787
H         73.71293       63.59265       78.79875
H         74.52933       66.53045       79.22108
H         73.10009       65.75260       79.96218
H         74.73690       65.16754       80.38758
N         76.23129       63.20218       78.01642
C         75.80873       61.97624       78.69250
C         74.60610       61.33167       78.03353
O         73.68038       60.97424       78.74805
C         76.99802       60.99855       78.74690
C         76.70314       59.73527       79.56666
C         77.95191       58.91709       79.72233
O         78.52362       58.46936       78.74108
O         78.45622       58.68703       80.94988
H         77.18835       63.22122       77.62809
H         75.55884       62.22040       79.75078
H         77.83836       61.53380       79.24384
H         77.31575       60.72025       77.71798
H         75.91811       59.12350       79.07222
H         76.33992       60.02739       80.57642
N         74.54587       61.14486       76.68664
C         73.37443       60.59128       76.03629
H         72.49835       61.25182       76.19618
H         73.54150       60.52243       74.94151
H         73.14741       59.58109       76.43608
H         75.34248       61.43042       76.09897
Ca        64.65548       69.62455       76.76067
O         67.50419       68.91852       76.09781
H         67.57276       69.61636       75.39994
H         67.50977       68.06475       75.59684
O         67.03634       70.10389       78.79171
H         67.35594       71.01284       79.01012
H         67.61364       69.52029       79.33886
O         65.05696       70.93745       74.49654
H         64.52777       71.61647       74.01194
H         65.88248       70.81261       73.96716

Ca 1.0



