%chk=apoCaM-CA-Ng.loop1.water3.frame167.chk
%nprocshared=20
%mem=10GB
%nosave
#b3lyp/svp scf=(tight,noincore,xqc) Test 
#IOP(5/87=12) Density=Current Pop=(MK,readradii) iop(6/33=2) iop(6/42=6)

apoCaM-CA-Ng.loop1.water3.frame167 

   0  1 
C         95.99951       51.06450       40.61034
C         97.19356       51.16825       39.70655
O         97.32048       50.35776       38.80046
H         95.06795       51.14790       40.01476
H         96.01774       50.08307       41.13001
H         96.00154       51.86454       41.38126
N         98.13680       52.12474       39.92641
C         99.36699       52.24057       39.15102
C        100.57410       51.80719       39.98050
O        101.68341       51.87540       39.46918
C         99.51568       53.66648       38.55870
C         99.61265       54.77963       39.57203
O         98.67398       55.03813       40.30782
O        100.72125       55.54228       39.62611
H         98.00721       52.75614       40.73013
H         99.34263       51.54893       38.28061
H         98.65302       53.87758       37.88941
H        100.43245       53.68690       37.92924
N        100.43143       51.30512       41.24643
C        101.53428       50.84530       42.08072
C        101.31969       49.39669       42.51362
O        100.25499       49.14320       43.06208
C        101.59114       51.69819       43.36586
C        101.96222       53.16285       43.09159
C        102.43711       53.88508       44.36642
C        103.83853       53.39977       44.80899
N        104.31022       54.12264       45.98647
H         99.49415       51.23935       41.66726
H        102.49835       50.95425       41.55344
H        102.33908       51.23973       44.02481
H        100.63665       51.65500       43.93646
H        101.06656       53.66722       42.66700
H        102.78057       53.23354       42.34249
H        101.69177       53.75452       45.18162
H        102.51701       54.96894       44.13671
H        104.55584       53.56318       43.97314
H        103.84430       52.31818       45.04946
H        103.67712       53.93321       46.79670
H        105.27241       53.78679       46.22399
H        104.34860       55.14850       45.79051
N        102.23810       48.37706       42.41083
C        103.57961       48.34957       41.80946
C        104.58632       49.32514       42.42704
O        104.18740       50.26597       43.08302
C        103.49655       48.50169       40.27996
C        102.75419       47.38780       39.59616
O        102.25575       46.45435       40.20727
O        102.66567       47.44472       38.26092
H        101.94162       47.47471       42.81699
H        103.98810       47.33617       42.01597
H        104.50478       48.51506       39.83208
H        103.01653       49.46073       40.00930
N        105.93902       49.17502       42.31683
C        106.59648       48.00176       41.75506
C        108.11415       48.09082       41.82357
O        108.63509       49.12075       42.22783
H        106.51562       49.91491       42.74548
H        106.32284       47.85633       40.69625
H        106.25420       47.14194       42.34693
N        108.93411       47.08147       41.40960
C        108.50154       45.77198       40.91115
C        109.60810       45.09302       40.10598
O        110.71400       45.61277       40.01940
C        108.00483       44.85605       42.06970
C        108.97877       44.67052       43.20793
O        110.07540       45.20670       43.20692
O        108.61489       43.91858       44.26452
H        109.94424       47.29127       41.43532
H        107.68505       45.92280       40.17279
H        107.73380       43.85718       41.67046
H        107.08248       45.25623       42.51478
N        109.36291       43.92440       39.44583
C        110.35207       43.31219       38.57691
C        110.49371       44.07537       37.27652
O        111.53926       43.96256       36.65294
H        108.44381       43.46607       39.53195
H        110.07179       42.26635       38.33465
H        111.32747       43.27231       39.11290
N        109.46955       44.83801       36.78120
C        109.59548       45.66454       35.58677
C        109.26052       47.08914       35.97964
O        108.10838       47.37832       36.27576
C        108.68117       45.16716       34.44499
C        109.03450       43.73120       34.03941
O        108.83983       46.01053       33.33288
H        108.56779       44.86201       37.28116
H        110.64127       45.62930       35.20896
H        107.62216       45.19856       34.79396
H        108.07985       45.82732       32.72047
H        108.89772       43.03670       34.89435
H        108.37085       43.39762       33.21360
H        110.08827       43.67641       33.69108
N        110.25161       48.01439       36.08628
C        110.02123       49.35742       36.61095
C        109.36287       50.30131       35.61413
O        109.12640       51.44218       35.99198
C        111.29794       49.96889       37.27069
C        112.45052       50.42051       36.32952
C        111.80275       49.05394       38.40352
C        113.17197       49.33742       35.52721
H        111.20981       47.68332       35.93475
H        109.30678       49.26430       37.46086
H        110.96292       50.90568       37.77206
H        113.21600       50.91457       36.96845
H        112.07318       51.18662       35.61940
H        110.98195       48.85883       39.12836
H        112.15879       48.07641       38.02058
H        112.63216       49.54258       38.95562
H        112.50984       48.90753       34.75078
H        114.03260       49.79460       34.99522
H        113.56840       48.54230       36.19283
N        109.00125       49.91921       34.35065
C        108.33620       50.84391       33.42986
C        107.02771       51.36392       34.01030
O        106.50815       50.78300       34.95311
C        108.08050       50.19947       32.03852
C        107.08431       49.03005       32.09260
O        109.28943       49.73651       31.49471
H        109.20881       48.96305       34.03206
H        109.02160       51.71034       33.29413
H        107.63130       50.95762       31.35325
H        109.73759       50.51847       31.07886
H        106.09277       49.37003       32.45915
H        106.94283       48.60605       31.07578
H        107.44609       48.22301       32.75892
N        106.45945       52.49032       33.49619
C        105.21010       53.05408       33.99008
C        104.24819       53.18778       32.83160
O        104.55432       53.90406       31.88930
C        105.46091       54.43340       34.65048
C        106.37286       54.31978       35.88209
O        104.24401       55.04233       35.01097
H        106.94775       52.98624       32.73456
H        104.75563       52.39850       34.76483
H        105.96306       55.10213       33.91736
H        103.85154       54.52953       35.76517
H        105.90937       53.65955       36.64734
H        107.36232       53.90209       35.60388
H        106.52703       55.32420       36.32998
N        103.05975       52.51749       32.84246
C        102.04746       52.65938       31.79668
C        100.92738       51.63647       31.96821
O        100.57115       51.00682       30.98145
C        101.53288       54.12169       31.69470
C        100.82541       54.65719       32.95150
C        100.59571       56.18383       32.89529
C        101.90447       56.98218       33.08963
N        101.65876       58.42396       33.09610
H        102.87912       51.88303       33.63279
H        102.52559       52.43924       30.81517
H        100.84472       54.22183       30.82630
H        102.40024       54.76013       31.46204
H        101.41047       54.43113       33.86805
H         99.84395       54.14169       33.02822
H         99.91644       56.45814       33.73085
H        100.09856       56.46403       31.94021
H        102.64035       56.75597       32.29120
H        102.35514       56.69408       34.06469
H        101.28656       58.72908       32.16794
H        100.98172       58.67459       33.85254
H        102.56155       58.92121       33.27724
N        100.36752       51.37077       33.18717
C         99.31416       50.37964       33.39146
C         98.12554       51.06915       34.02107
O         98.26582       51.63219       35.09966
C         99.80449       49.22369       34.29536
C         98.69681       48.16687       34.52593
C         99.15157       47.12630       35.50060
O         98.65824       47.08585       36.61684
O        100.14121       46.27212       35.19128
H        100.70518       51.88093       34.01771
H         99.01311       49.91980       32.42507
H        100.12300       49.63996       35.27812
H        100.68833       48.73419       33.82866
H         98.38913       47.68530       33.57342
H         97.81042       48.67012       34.96670
N         96.91228       51.03833       33.40745
C         95.72442       51.64817       33.96554
H         94.95427       50.86502       34.12477
H         95.92023       52.14726       34.93816
H         95.33444       52.40392       33.25389
H         96.81544       50.54785       32.50576
Ca       101.60112       46.06415       36.86174
O        101.79559       42.92889       38.99922
H        101.45291       42.62312       39.87658
H        102.70753       42.54712       38.94253
O         99.53875       47.84270       39.80925
H         98.56253       47.91931       39.95373
H         99.68858       48.22136       38.90677
O        103.98910       44.26229       36.47143
H        104.00622       45.13173       35.99732
H        103.22029       43.77892       36.07598

Ca 1.0



