%chk=apoCaM-CA-Ng.loop3.water3.frame797.chk
%nprocshared=20
%mem=10GB
%nosave
#b3lyp/svp scf=(tight,noincore,xqc) Test 
#IOP(5/87=12) Density=Current Pop=(MK,readradii) iop(6/33=2) iop(6/42=6)

apoCaM-CA-Ng.loop3.water3.frame797 

   0  1 
C        -17.78173       78.03358       92.40760
C        -19.21839       78.43692       92.59060
O        -19.93677       77.75813       93.30939
H        -17.27524       78.02542       93.39709
H        -17.72088       77.02142       91.95938
H        -17.23788       78.74795       91.75315
N        -19.69556       79.56767       92.00145
C        -21.03287       80.09173       92.25483
C        -22.12223       79.18393       91.68401
O        -22.15218       78.99050       90.47633
C        -21.13604       81.51858       91.67405
C        -22.34452       82.26497       92.15486
O        -22.52718       83.41589       91.79634
O        -23.20939       81.69322       93.00876
H        -19.04612       80.12317       91.42243
H        -21.13803       80.18753       93.35088
H        -21.11834       81.47761       90.56363
H        -20.25619       82.10681       92.00829
N        -23.04720       78.58498       92.49629
C        -24.09468       77.69936       91.98091
C        -25.15907       78.43610       91.16594
O        -25.79005       77.78319       90.34629
C        -24.78582       76.89513       93.10598
C        -23.83095       75.91272       93.80825
C        -24.56909       75.11377       94.89342
C        -23.65649       74.05894       95.53602
N        -24.36876       73.31365       96.57493
H        -22.97323       78.72600       93.51387
H        -23.61014       76.95423       91.30954
H        -25.60694       76.29071       92.65913
H        -25.23478       77.59021       93.84395
H        -22.98043       76.45783       94.27102
H        -23.42906       75.20591       93.04881
H        -25.44259       74.59442       94.44104
H        -24.93616       75.81389       95.67561
H        -22.76637       74.55295       95.98441
H        -23.30716       73.34846       94.75332
H        -23.73059       72.58999       96.97820
H        -24.67009       73.96149       97.33878
H        -25.20567       72.83514       96.16867
N        -25.44793       79.76154       91.34978
C        -26.43754       80.49090       90.54734
C        -25.80080       81.60355       89.70804
O        -26.52048       82.27467       88.98124
C        -27.64365       80.96401       91.40248
C        -27.41308       81.92615       92.57141
O        -26.78085       83.10813       92.18432
O        -26.65443       81.34708       93.58764
H        -24.94138       80.27873       92.07717
H        -26.89107       79.80744       89.79690
H        -28.14092       80.06442       91.82574
H        -28.38025       81.44653       90.72455
N        -24.44909       81.78580       89.67744
C        -23.74683       82.68342       88.77062
C        -23.85530       84.17106       89.04736
O        -23.12814       84.90068       88.38804
H        -23.85147       81.16933       90.24010
H        -24.04178       82.46835       87.72055
H        -22.66390       82.44747       88.85801
N        -24.70804       84.71501       89.96417
C        -24.75707       86.15244       90.23990
C        -24.67804       86.43429       91.73539
O        -24.69857       85.51466       92.53800
C        -26.04932       86.75212       89.64886
C        -26.07550       86.62444       88.14413
N        -27.05690       85.93294       87.52044
O        -25.20110       87.16173       87.47975
H        -25.36856       84.10780       90.45981
H        -23.89209       86.66999       89.76883
H        -26.11497       87.83553       89.88527
H        -26.93034       86.24862       90.10307
H        -27.80671       85.47523       88.05793
H        -27.06714       85.85616       86.49223
N        -24.58158       87.72082       92.17269
C        -24.56705       88.12172       93.57174
C        -23.41066       87.53476       94.34915
O        -22.27991       87.62413       93.89178
H        -24.52896       88.47523       91.47126
H        -25.53563       87.86438       94.05129
H        -24.46312       89.22812       93.60509
N        -23.61650       86.99158       95.58737
C        -22.52518       86.49232       96.42005
C        -21.94969       85.18445       95.88859
O        -22.43534       84.65856       94.89594
C        -22.98081       86.29517       97.89462
C        -23.38400       87.56118       98.61928
C        -22.53194       88.68205       98.64673
C        -24.58994       87.60741       99.34030
C        -22.88448       89.82472       99.36946
C        -24.93149       88.74654      100.07803
C        -24.08270       89.85809      100.09445
O        -24.42234       90.94572      100.81568
H        -24.56966       87.01160       95.98092
H        -21.70558       87.24068       96.41754
H        -22.13275       85.90414       98.48824
H        -23.78845       85.53331       97.94537
H        -21.58963       88.67983       98.11687
H        -25.25340       86.75188       99.35884
H        -22.21806       90.67838       99.37548
H        -25.85227       88.76096      100.64757
H        -23.85625       91.72977      100.86175
N        -20.89356       84.61076       96.54020
C        -20.22423       83.35682       96.20656
C        -21.18447       82.17681       96.30988
O        -22.11936       82.09491       95.53122
C        -19.50845       83.42611       94.82851
C        -18.68496       82.14257       94.52368
C        -18.61833       84.67994       94.73186
C        -17.54446       81.84269       95.50526
H        -20.50453       85.10552       97.35668
H        -19.43359       83.22749       96.97458
H        -20.27780       83.51871       94.03266
H        -18.24534       82.23650       93.50715
H        -19.36220       81.26447       94.51231
H        -18.11804       84.72123       93.74146
H        -19.22927       85.60171       94.83298
H        -17.84830       84.69368       95.53036
H        -17.01730       80.92125       95.18131
H        -16.80326       82.66714       95.52688
H        -17.92634       81.66282       96.53020
N        -21.01110       81.22462       97.27496
C        -21.92405       80.08514       97.41015
C        -21.97199       79.43557       98.79261
O        -22.78236       78.52536       98.94145
C        -21.61104       79.03077       96.33925
O        -20.31774       78.52545       96.52612
H        -20.21830       81.34116       97.91081
H        -22.95856       80.45949       97.25752
H        -21.68764       79.49233       95.34101
H        -22.35750       78.20515       96.40014
H        -20.25247       77.71449       95.95839
N        -21.21386       79.82748       99.85966
C        -21.37752       79.23011      101.18358
C        -22.77670       79.51472      101.71837
O        -23.43377       80.39367      101.17657
C        -20.33130       79.80765      102.13725
H        -20.51637       80.57431       99.76325
H        -21.22863       78.13215      101.08217
H        -19.31094       79.55740      101.77393
H        -20.42962       80.91238      102.19824
H        -20.46370       79.40708      103.15060
N        -23.37156       78.79859      102.71732
C        -22.81944       77.64737      103.42830
C        -23.20279       77.72440      104.90371
O        -24.35151       78.04977      105.17449
C        -23.44719       76.38070      102.84448
H        -24.35926       79.03217      102.91041
H        -21.73114       77.53428      103.27696
H        -24.55352       76.39870      102.94461
H        -23.18768       76.29602      101.76747
H        -23.05140       75.48385      103.36877
N        -22.39007       77.35689      105.93624
C        -21.03616       76.83026      105.82260
C        -20.07727       77.91509      105.39043
O        -19.33213       77.70053      104.44457
C        -20.61023       76.21657      107.17626
C        -19.26789       75.47556      107.09041
C        -18.97132       74.76502      108.38051
O        -18.85105       73.54996      108.39748
O        -18.84029       75.46194      109.52520
H        -22.80734       77.39263      106.88108
H        -21.03453       75.98873      105.09352
H        -21.38533       75.46964      107.46174
H        -20.57193       76.99659      107.96881
H        -18.44598       76.18804      106.86748
H        -19.31821       74.72537      106.26990
N        -20.06099       79.11715      106.03461
C        -19.20674       80.22315      105.65112
H        -18.53756       79.96894      104.80270
H        -19.84050       81.08389      105.34717
H        -18.58253       80.52648      106.51635
H        -20.71129       79.27504      106.81926
Ca       -25.32047       83.14134       93.92730
O        -26.64574       85.40860       95.13340
H        -27.00717       85.95817       95.87257
H        -27.34139       85.44164       94.42961
O        -24.69096       83.20254       96.92882
H        -24.51258       82.35673       97.41035
H        -25.59871       83.46804       97.22123
O        -24.84862       79.89186       95.39644
H        -25.69044       79.56082       94.99822
H        -24.54969       79.14147       95.96636

Ca 1.0



