%chk=apoCaM-CA-Ng.loop1.water5.frame651.chk
%nprocshared=20
%mem=10GB
%nosave
#b3lyp/svp scf=(tight,noincore,xqc) Test 
#IOP(5/87=12) Density=Current Pop=(MK,readradii) iop(6/33=2) iop(6/42=6)

apoCaM-CA-Ng.loop1.water5.frame651 

   0  1 
C        -13.35295       26.62889       19.06427
C        -14.75989       26.15246       19.28123
O        -15.42313       25.81947       18.30985
H        -12.76672       25.82431       18.57160
H        -13.35436       27.52868       18.41563
H        -12.85614       26.88266       20.02462
N        -15.26947       26.06007       20.54139
C        -16.60133       25.54680       20.83694
C        -17.39183       26.48990       21.73646
O        -16.98733       26.73941       22.85881
C        -16.51815       24.12378       21.43337
C        -15.62148       23.89088       22.63195
O        -15.61966       22.78224       23.14148
O        -14.78527       24.82984       23.12562
H        -14.66066       26.32489       21.32531
H        -17.17979       25.42590       19.89460
H        -16.16020       23.43651       20.63644
H        -17.55430       23.81467       21.69748
N        -18.55995       27.03969       21.29886
C        -19.41844       27.88502       22.12886
C        -20.05093       27.02147       23.23549
O        -20.74854       26.07366       22.90422
C        -20.48422       28.53544       21.20619
C        -21.33867       29.64320       21.83995
C        -22.47007       30.11989       20.89408
C        -22.03703       30.72239       19.53844
N        -21.33591       31.99814       19.68371
H        -18.84907       26.85023       20.32644
H        -18.80011       28.70787       22.54588
H        -21.14164       27.73631       20.80176
H        -19.94366       29.00324       20.36135
H        -20.69549       30.49768       22.14130
H        -21.82249       29.23222       22.74742
H        -23.09901       30.86678       21.42513
H        -23.11150       29.23947       20.67425
H        -22.95272       30.89839       18.93048
H        -21.41397       30.00301       18.96890
H        -21.96171       32.69752       20.14589
H        -20.46065       31.87780       20.23795
H        -21.08529       32.35781       18.73326
N        -19.84269       27.27616       24.56337
C        -20.35379       26.44040       25.65929
C        -20.34691       27.21937       26.97603
O        -19.57217       26.89062       27.86446
C        -19.58782       25.09852       25.75790
C        -18.09226       25.18234       25.88934
O        -17.44918       24.14504       25.91680
O        -17.43138       26.35241       25.85533
H        -19.27819       28.09174       24.81845
H        -21.40808       26.15199       25.47486
H        -19.78703       24.51447       24.83538
H        -19.98848       24.51947       26.61836
N        -21.17459       28.28379       27.20040
C        -22.21309       28.74681       26.28935
C        -21.84265       30.03701       25.60929
O        -22.63401       30.50810       24.80362
H        -21.07155       28.80281       28.08698
H        -23.16564       28.85035       26.85154
H        -22.40106       28.02634       25.47369
N        -20.63697       30.63315       25.82328
C        -20.14169       31.75122       25.03577
C        -18.88539       31.31050       24.29758
O        -18.40375       30.21500       24.54010
C        -19.92848       32.97859       25.94254
C        -19.01078       32.70603       27.10475
O        -17.84568       32.39572       26.91714
O        -19.47872       32.80258       28.36459
H        -19.99236       30.24258       26.52627
H        -20.88303       32.03600       24.25689
H        -20.92201       33.27528       26.34627
H        -19.53649       33.83217       25.35102
N        -18.30541       32.09909       23.35927
C        -17.14452       31.68045       22.58517
C        -17.38906       31.82719       21.10311
O        -18.01115       32.80301       20.70497
H        -18.69690       33.03776       23.18748
H        -16.81279       30.64298       22.81975
H        -16.30255       32.35244       22.84480
N        -16.80133       30.97384       20.21420
C        -16.81658       31.20074       18.76775
C        -15.41642       31.51000       18.27860
O        -14.46509       31.39629       19.04322
C        -17.42508       30.00554       17.99190
C        -16.68592       28.68650       18.22543
O        -18.76813       29.84005       18.34965
H        -16.23796       30.19086       20.58235
H        -17.42584       32.09935       18.52841
H        -17.36379       30.20562       16.89590
H        -19.28974       30.48877       17.80828
H        -16.74730       28.37876       19.28901
H        -17.15080       27.88652       17.61103
H        -15.61922       28.77545       17.93012
N        -15.21922       31.94087       16.99885
C        -13.88906       32.25809       16.48474
C        -13.29662       33.46034       17.23378
O        -12.09826       33.68177       17.14637
C        -13.89636       32.47789       14.93163
C        -14.69218       31.38911       14.14911
C        -12.46392       32.56428       14.36411
C        -14.28686       29.94494       14.45224
H        -16.04372       32.04124       16.39248
H        -13.25606       31.36681       16.69332
H        -14.40207       33.44414       14.70861
H        -14.58799       31.57701       13.05804
H        -15.77639       31.47931       14.35923
H        -11.89395       31.63545       14.57548
H        -12.49448       32.71881       13.26466
H        -11.90508       33.42274       14.78126
H        -14.47175       29.70235       15.51970
H        -14.90974       29.25824       13.84099
H        -13.22162       29.76378       14.20954
N        -14.08248       34.26519       18.01075
C        -13.58560       35.38633       18.79995
C        -14.22494       36.68487       18.33565
O        -15.04957       36.67202       17.43126
C        -13.80473       35.10827       20.31492
C        -15.24780       34.74243       20.68464
O        -12.95982       34.05596       20.70456
H        -15.09624       34.09480       18.04982
H        -12.49280       35.52395       18.64893
H        -13.52332       36.02567       20.87948
H        -12.71208       34.21604       21.65348
H        -15.32909       34.60820       21.78418
H        -15.95956       35.53060       20.36557
H        -15.53249       33.77830       20.21866
N        -13.85879       37.86202       18.91744
C        -14.34669       39.16442       18.48856
C        -13.15641       40.10661       18.36345
O        -12.86933       40.57038       17.26894
C        -15.45212       39.65209       19.46085
C        -16.04840       40.99272       19.02185
O        -14.96880       39.74582       20.77538
H        -13.18908       37.83722       19.69954
H        -14.82920       39.07745       17.48850
H        -16.25929       38.88296       19.43167
H        -15.75650       39.83980       21.37175
H        -16.46166       40.90950       17.99446
H        -16.87546       41.27469       19.70773
H        -15.27922       41.79280       19.04556
N        -12.41157       40.41320       19.46275
C        -11.21794       41.24039       19.46366
C        -10.11862       40.41206       20.10115
O        -10.24255       40.07070       21.27047
C        -11.56061       42.53952       20.22230
C        -10.40386       43.52470       20.43653
C        -10.96763       44.84228       21.00120
C         -9.87128       45.85183       21.35717
N        -10.46096       47.11529       21.80601
H        -12.69326       40.03162       20.37561
H        -10.92445       41.51741       18.42686
H        -11.99055       42.29306       21.21890
H        -12.35334       43.04547       19.62587
H         -9.88955       43.73734       19.47459
H         -9.67438       43.07751       21.14674
H        -11.56532       44.63829       21.91702
H        -11.63932       45.29183       20.23574
H         -9.23048       46.04487       20.46939
H         -9.23701       45.43065       22.16878
H        -11.07435       46.95736       22.63868
H         -9.69793       47.77969       22.06895
H        -11.02466       47.54071       21.03378
N         -9.05061       39.97873       19.36913
C         -8.08157       39.02890       19.90339
C         -8.61757       37.59599       19.80275
O         -8.81593       37.00629       20.85551
C         -6.68129       39.25896       19.29871
C         -5.63551       38.29150       19.88525
C         -4.24014       38.54597       19.37969
O         -4.00479       39.44386       18.58568
O         -3.23060       37.76953       19.81653
H         -8.98371       40.24943       18.37690
H         -7.94477       39.24850       20.98803
H         -6.37917       40.30300       19.53589
H         -6.69430       39.17092       18.19807
H         -5.91090       37.24696       19.62423
H         -5.62391       38.38985       20.99216
N         -8.90370       36.93529       18.63926
C         -8.72578       37.45349       17.30090
H         -7.65582       37.62934       17.08837
H         -9.07037       36.69710       16.56271
H         -9.32700       38.36989       17.14877
H         -9.28247       35.97725       18.71180
Ca       -15.42563       26.00448       24.92985
O        -12.32761       26.95081       26.06292
H        -11.90278       27.84512       26.04642
H        -11.59952       26.33382       26.32632
O        -15.44433       29.05991       25.54821
H        -16.12560       28.81047       24.87457
H        -15.38210       30.04581       25.48462
O        -13.32778       27.67464       23.23552
H        -13.64016       28.27975       22.51690
H        -12.34197       27.76477       23.22668
O        -13.48951       23.68928       25.65069
H        -14.37749       23.30708       25.43873
H        -13.22733       23.24329       26.49405
O        -14.85459       26.55011       27.83858
H        -14.20433       26.38681       28.56683
H        -15.73471       26.58467       28.29065

Ca 1.0



