%chk=apoCaM-CA-Ng.loop2.water3.frame468.chk
%nprocshared=20
%mem=10GB
%nosave
#b3lyp/svp scf=(tight,noincore,xqc) Test 
#IOP(5/87=12) Density=Current Pop=(MK,readradii) iop(6/33=2) iop(6/42=6)

apoCaM-CA-Ng.loop2.water3.frame468 

   -2  1 
C         33.90548       45.64272       73.73140
C         33.53591       45.81158       72.28539
O         34.42902       45.90278       71.45582
H         34.50499       46.51258       74.06978
H         33.00403       45.56271       74.37487
H         34.50788       44.71778       73.85489
N         32.22990       45.83082       71.89951
C         31.82885       45.95117       70.50368
C         32.15546       47.33558       69.96041
O         31.57447       48.30577       70.42652
C         30.31013       45.67797       70.36817
C         29.79357       45.67843       68.94990
O         30.53620       45.86830       67.99916
O         28.48421       45.45678       68.72876
H         31.50213       45.70431       72.62051
H         32.35945       45.16182       69.92466
H         29.74564       46.43965       70.94985
H         30.08704       44.67956       70.80288
N         33.04713       47.48903       68.93968
C         33.26794       48.75314       68.24435
C         34.68168       49.25106       68.42943
O         35.62190       48.50380       68.19400
C         32.99093       48.56045       66.75411
H         33.55857       46.65926       68.60080
H         32.56331       49.53478       68.60389
H         33.13974       49.52124       66.21497
H         33.67514       47.79852       66.32211
H         31.94202       48.22979       66.60429
N         34.89836       50.54189       68.81538
C         36.22821       51.10450       69.01159
C         37.05447       51.00451       67.74455
O         36.67697       51.54534       66.71554
C         36.15671       52.55977       69.53711
C         35.54858       52.59386       70.91963
O         35.06155       51.44933       71.43795
O         35.56727       53.61732       71.58365
H         34.08090       51.14948       68.98043
H         36.73915       50.51533       69.80440
H         35.59799       53.22287       68.84161
H         37.19850       52.93975       69.62725
N         38.21526       50.29293       67.77976
C         39.06342       50.08979       66.61435
C         40.38537       49.36120       66.87897
O         41.08148       49.12398       65.89972
H         38.45872       49.88151       68.68030
H         39.31889       51.07736       66.17229
H         38.48070       49.51175       65.86464
N         40.83851       49.01563       68.12604
C         42.13150       48.40159       68.39087
C         41.94802       47.10710       69.17070
O         41.34495       47.12491       70.23699
C         42.97937       49.39790       69.20054
C         44.34661       48.84936       69.51767
N         44.73737       48.67720       70.80154
O         45.10743       48.55636       68.60709
H         40.30257       49.23423       68.97065
H         42.67369       48.19294       67.44131
H         42.44224       49.65358       70.14068
H         43.10026       50.33575       68.61542
H         44.10769       48.91451       71.58227
H         45.67120       48.29960       71.01764
N         42.47048       45.94357       68.69818
C         42.35769       44.66082       69.37513
C         43.09677       44.58884       70.69978
O         43.63913       45.57686       71.17355
H         42.96583       45.95474       67.79295
H         42.81210       43.89014       68.71509
H         41.28781       44.39804       69.52157
N         43.18918       43.38044       71.32297
C         43.92262       43.14788       72.56631
C         43.28695       43.86407       73.75104
O         44.01728       44.46995       74.52300
C         44.12960       41.62882       72.84902
C         42.85171       40.79271       73.01715
O         44.95104       41.05674       71.85916
H         42.75278       42.57775       70.84798
H         44.95926       43.53961       72.44964
H         44.69197       41.54933       73.80599
H         44.44351       41.03304       71.00723
H         42.24149       40.78269       72.09220
H         43.13114       39.74330       73.25312
H         42.23428       41.17408       73.84775
N         41.93617       43.85862       73.94421
C         41.27135       44.52813       75.06635
C         40.49990       45.74210       74.58144
O         40.53418       46.03216       73.39199
C         40.41255       43.51698       75.89035
C         39.37559       42.69345       75.07903
C         41.34679       42.55373       76.64134
C         38.29831       43.52557       74.38458
H         41.34684       43.39423       73.23789
H         42.02146       44.96227       75.76467
H         39.86379       44.07147       76.68043
H         38.85053       42.01483       75.78619
H         39.88179       42.05425       74.32560
H         41.95071       41.94596       75.94115
H         42.04115       43.12411       77.29532
H         40.75945       41.86962       77.28975
H         37.56373       42.84509       73.90502
H         37.76499       44.16243       75.12165
H         38.72693       44.15447       73.58195
N         39.83017       46.54136       75.46843
C         39.22306       47.80873       75.08454
C         39.88472       48.91971       75.89149
O         39.20344       49.76688       76.44758
C         37.69032       47.74838       75.29689
C         36.97072       48.95261       74.74246
O         35.63378       49.06272       74.84883
O         37.58221       49.82294       74.14081
H         39.79990       46.28227       76.46583
H         39.42059       48.00431       74.00822
H         37.47201       47.63878       76.38131
H         37.28613       46.85618       74.77194
N         41.23778       48.92759       76.04254
C         41.96549       49.90618       76.84561
C         41.40350       49.99000       78.26895
O         41.24125       48.95125       78.89452
C         43.47071       49.53722       76.84335
C         44.32475       50.50000       77.63525
C         45.13001       51.44305       76.97462
C         44.33199       50.46074       79.04217
C         45.91007       52.34165       77.70893
C         45.11854       51.35487       79.77124
C         45.90378       52.29801       79.10562
H         41.77627       48.17363       75.58797
H         41.86943       50.88917       76.34318
H         43.79530       49.54886       75.77877
H         43.64218       48.50558       77.22283
H         45.14321       51.49376       75.89307
H         43.73732       49.73328       79.57846
H         46.51893       53.07325       77.19450
H         45.11828       51.31522       80.85288
H         46.50934       52.99276       79.67239
N         41.12529       51.19620       78.86965
C         40.64455       51.34885       80.24302
C         39.28391       50.73445       80.52197
O         38.95591       50.51350       81.67876
C         40.49700       52.87103       80.39737
C         41.58998       53.39116       79.49971
C         41.43595       52.48761       78.28380
H         41.42447       50.93387       80.91961
H         39.54037       53.20542       79.92745
H         40.51557       53.23442       81.44636
H         41.54494       54.47723       79.27142
H         42.56374       53.16387       79.99095
H         40.58973       52.79624       77.63068
H         42.39785       52.51885       77.73185
N         38.38629       50.58519       79.51306
C         37.00014       50.16962       79.69597
C         36.90958       48.77706       80.28161
O         36.16551       48.59211       81.23563
C         36.23576       50.25687       78.35788
C         36.14568       51.71830       77.87317
C         35.42134       51.82473       76.56979
O         34.14791       51.39915       76.46441
O         35.97884       52.31996       75.60322
H         38.69635       50.83124       78.56632
H         36.48745       50.87067       80.39360
H         35.19965       49.87772       78.50356
H         36.73497       49.62262       77.59636
H         37.15729       52.15706       77.74554
H         35.60157       52.32562       78.62771
N         37.65219       47.75032       79.78734
C         37.56763       46.41728       80.34552
H         36.54739       46.00830       80.18521
H         38.30470       45.74913       79.85338
H         37.78455       46.44216       81.43605
H         38.31462       47.92258       79.01616
Ca        34.87375       50.73259       73.54511
O         33.06661       53.20730       74.09249
H         33.59300       53.59777       74.83418
H         33.53733       53.50467       73.27470
O         35.58397       48.57748       71.44595
H         35.53274       48.11280       72.31719
H         36.50338       48.40024       71.12598
O         32.04528       50.17833       73.30694
H         31.78217       50.16674       72.35302
H         31.19652       50.07126       73.80414

Ca 1.0



