%chk=apoCaM-CA-Ng.loop4.water3.frame308.chk
%nprocshared=20
%mem=10GB
%nosave
#b3lyp/svp scf=(tight,noincore,xqc) Test 
#IOP(5/87=12) Density=Current Pop=(MK,readradii) iop(6/33=2) iop(6/42=6)

apoCaM-CA-Ng.loop4.water3.frame308 

   -3  1 
C         69.09248       50.88198       20.75974
C         69.90026       49.66590       20.41744
O         69.81427       48.67963       21.12907
H         68.48038       50.70794       21.67080
H         69.76914       51.74313       20.93737
H         68.40990       51.12092       19.91647
N         70.68759       49.66923       19.30468
C         71.47898       48.54462       18.81091
C         70.59178       47.34169       18.51541
O         70.24343       46.60002       19.41969
C         72.76869       48.28672       19.63170
C         72.59543       47.93390       21.08124
O         72.08611       46.87682       21.40667
O         73.06263       48.76474       22.03373
H         70.68994       50.52490       18.72776
H         71.88232       48.87290       17.82659
H         73.36557       49.22437       19.59098
H         73.36843       47.48879       19.14260
N         70.08206       47.19733       17.25372
C         69.11435       46.19861       16.79352
C         69.80460       44.86920       16.47680
O         69.78269       44.47124       15.31989
C         67.83061       46.11306       17.68413
C         66.68560       45.31170       16.99805
C         67.31176       47.51452       18.08128
C         66.12327       45.93422       15.70668
H         70.33720       47.91565       16.55869
H         68.76932       46.58273       15.81175
H         68.08242       45.58347       18.62825
H         65.84338       45.22514       17.71854
H         67.03137       44.28460       16.76612
H         68.04903       48.05827       18.70268
H         67.10494       48.14103       17.18972
H         66.38574       47.42847       18.68937
H         66.88644       45.98819       14.90531
H         65.29110       45.30718       15.32557
H         65.71294       46.94922       15.88668
N         70.51941       44.17797       17.40954
C         71.38560       43.05228       17.06216
C         70.66604       41.76607       16.66565
O         71.13431       41.14891       15.71892
C         72.42644       42.76682       18.16339
C         73.30898       43.96721       18.40544
O         73.97266       44.43717       17.49360
O         73.38244       44.52187       19.62877
H         70.56093       44.53347       18.37103
H         72.00858       43.35577       16.18791
H         73.08777       41.93503       17.83113
H         71.92580       42.45559       19.10168
N         69.58664       41.22676       17.30637
C         68.82070       41.87463       18.35925
C         67.59590       41.04232       18.72656
O         66.97181       40.53353       17.80539
H         69.25940       40.31025       16.96027
H         68.42721       42.82341       17.95034
H         69.47184       42.10827       19.21056
N         67.09292       40.88902       19.99079
C         67.55409       41.52020       21.21946
C         67.53060       43.04077       21.07816
O         68.58104       43.63121       20.87342
C         68.88762       40.93064       21.74353
C         69.21816       41.37486       23.15174
O         68.48777       42.13610       23.76835
O         70.32576       40.89978       23.75089
H         66.23719       40.31723       20.08088
H         66.83613       41.23021       22.01495
H         69.74288       41.17828       21.09214
H         68.78951       39.82386       21.77050
N         66.39042       43.77996       21.21495
C         65.09968       43.25269       21.60989
C         64.35884       42.58421       20.48837
O         64.74299       42.70141       19.33228
H         66.46230       44.79759       21.12757
H         64.44603       44.08961       21.93924
H         65.21618       42.59300       22.49231
N         63.23567       41.87414       20.78247
C         62.38631       41.27809       19.75893
C         61.58741       42.34075       19.00907
O         61.02197       42.02769       17.97103
C         61.46851       40.20144       20.38108
C         60.40476       40.75216       21.35260
C         59.72486       39.62160       22.08187
N         58.40211       39.38517       21.93370
O         60.38285       38.91057       22.82722
H         63.00262       41.74340       21.77752
H         63.05649       40.74804       19.04490
H         62.13206       39.48827       20.91916
H         60.94809       39.63748       19.57608
H         59.66994       41.35203       20.77517
H         60.85228       41.41317       22.12249
H         57.82723       39.96279       21.30833
H         57.95102       38.61089       22.44279
N         61.46642       43.60842       19.50675
C         60.73261       44.68995       18.85709
C         59.50927       45.11168       19.66006
O         58.81538       46.01015       19.20428
C         61.66740       45.91495       18.61560
C         62.73404       45.59197       17.56489
C         62.33841       46.43095       19.90443
H         61.88996       43.82165       20.41925
H         60.33600       44.35941       17.87171
H         61.05312       46.74471       18.19982
H         63.38713       44.76179       17.90327
H         62.24580       45.30167       16.61020
H         63.36046       46.48894       17.36939
H         62.92114       47.34872       19.68197
H         61.58116       46.67971       20.67758
H         63.04771       45.68678       20.32290
N         59.16096       44.51285       20.83737
C         57.98218       44.90410       21.60319
C         58.35417       45.43157       22.98263
O         57.45355       45.87143       23.68617
C         57.03898       43.68945       21.73221
C         56.66691       43.11714       20.38391
N         55.98882       43.85228       19.47381
O         56.98497       41.97098       20.10942
H         59.72621       43.73687       21.20622
H         57.43717       45.72409       21.08836
H         56.10993       43.97626       22.27115
H         57.55226       42.90143       22.32891
H         55.70341       44.81937       19.68031
H         55.74712       43.44775       18.55656
N         59.63634       45.39306       23.45909
C         59.98726       45.77336       24.82199
C         61.38735       46.36571       24.89466
O         62.26225       45.92735       24.15900
C         60.05222       44.49997       25.69501
C         58.78336       43.68456       25.71862
C         57.61021       44.17390       26.31775
C         58.78082       42.39721       25.15528
C         56.45771       43.37890       26.35831
C         57.62972       41.61027       25.19037
C         56.46646       42.09268       25.79548
O         55.36940       41.31004       25.83440
H         60.37306       44.95169       22.89365
H         59.23441       46.47102       25.25429
H         60.31628       44.76603       26.74294
H         60.87682       43.86485       25.30006
H         57.59100       45.16030       26.76463
H         59.67253       41.99916       24.68716
H         55.56125       43.75917       26.83203
H         57.64718       40.62048       24.75216
H         54.54720       41.59436       26.25760
N         61.71559       47.14829       25.96172
C         63.07796       47.38395       26.44267
C         63.98531       48.20810       25.52477
O         65.09497       48.49445       25.95001
C         63.70595       46.00723       26.80091
C         64.90865       46.06991       27.75448
C         65.42388       44.68656       28.03469
O         65.39450       44.19290       29.28715
O         65.87793       44.00544       27.12844
H         60.95222       47.46503       26.58052
H         62.97183       47.95758       27.39120
H         63.98584       45.47041       25.86894
H         62.93200       45.40173       27.32562
H         64.58134       46.54135       28.70735
H         65.74354       46.66032       27.33366
N         63.61229       48.64702       24.28503
C         64.50820       49.42077       23.42146
C         63.97066       50.81642       23.14637
O         64.66324       51.57626       22.48104
C         64.69623       48.70575       22.06768
C         65.23692       47.27419       22.13301
C         66.65284       47.17582       22.62328
O         66.93787       47.42785       23.78227
O         67.60345       46.73489       21.77889
H         62.67208       48.43402       23.92677
H         65.50249       49.55405       23.89891
H         65.37681       49.29932       21.41623
H         63.70339       48.66113       21.57073
H         65.21444       46.88328       21.09255
H         64.57819       46.62555       22.74798
N         62.75249       51.23399       23.59329
C         62.24093       52.54895       23.27800
H         61.22788       52.67527       23.71412
H         62.91378       53.32834       23.69313
H         62.16871       52.66918       22.17526
H         62.15190       50.61364       24.15296
Ca        69.63606       46.08437       22.46970
O         71.64621       43.80753       22.11283
H         71.49784       43.47942       21.19144
H         72.45908       43.33294       22.41881
O         69.90227       44.70222       24.92799
H         68.98118       44.44016       25.17922
H         70.47362       43.95836       25.24311
O         70.38694       48.18623       24.35544
H         69.58823       47.81544       24.80854
H         70.06678       49.02261       23.93359

Ca 1.0



