%chk=apoCaM-CA-Ng.loop2.water4.frame3.chk
%nprocshared=20
%mem=10GB
%nosave
#b3lyp/svp scf=(tight,noincore,xqc) Test 
#IOP(5/87=12) Density=Current Pop=(MK,readradii) iop(6/33=2) iop(6/42=6)

apoCaM-CA-Ng.loop2.water4.frame3 

   -2  1 
C         57.90612       22.65402       72.81997
C         56.76379       23.40190       72.20668
O         55.71800       22.80134       72.00833
H         58.79649       23.30380       72.94335
H         57.60159       22.26251       73.81307
H         58.17561       21.80123       72.16110
N         56.87560       24.72491       71.88947
C         55.78138       25.45757       71.26436
C         55.56136       25.00485       69.82058
O         54.51500       25.32182       69.27404
C         56.04108       26.97736       71.33329
C         54.84524       27.78532       70.90908
O         53.68169       27.66908       71.57861
O         54.92688       28.56272       69.97194
H         57.74786       25.22301       72.12511
H         54.86764       25.24611       71.86556
H         56.92623       27.23288       70.70914
H         56.26670       27.25728       72.38514
N         56.50183       24.27054       69.13864
C         56.33167       23.77170       67.77374
C         55.22468       22.73194       67.67771
O         54.81626       22.41476       66.56913
C         56.12305       24.92884       66.78004
H         57.39731       24.04655       69.59458
H         57.26869       23.26315       67.45537
H         55.17533       25.47452       66.95634
H         56.97042       25.64290       66.84891
H         56.09413       24.53595       65.74044
N         54.70697       22.13907       68.79633
C         53.59291       21.20405       68.79914
C         52.36629       21.93428       68.27259
O         51.72757       21.47729       67.33592
C         53.95784       19.89448       68.04576
C         52.86372       18.85631       68.07145
O         52.54401       18.19294       69.19852
O         52.27693       18.57505       67.03912
H         55.09192       22.37808       69.71586
H         53.38040       20.92811       69.85771
H         54.87585       19.44486       68.48394
H         54.17397       20.13562       66.98735
N         51.98534       23.10219       68.87090
C         50.78265       23.84309       68.51883
C         49.75028       23.77219       69.63181
O         48.64321       24.25242       69.43241
H         52.55277       23.46445       69.65275
H         50.30796       23.40230       67.61606
H         51.04426       24.89626       68.28212
N         50.01257       23.11060       70.79564
C         48.99618       22.75884       71.77992
C         48.42403       23.93493       72.54121
O         48.89754       25.05619       72.42993
C         49.60449       21.77739       72.80996
C         50.16253       20.56343       72.12394
N         51.48807       20.31257       72.15656
O         49.41683       19.81531       71.51010
H         50.95223       22.72293       70.94458
H         48.16845       22.24580       71.24121
H         48.85427       21.43575       73.55227
H         50.41288       22.30590       73.36479
H         52.14092       20.94270       72.64512
H         51.85965       19.49349       71.66744
N         47.38911       23.68308       73.38997
C         46.79244       24.62947       74.30805
C         46.91734       24.06050       75.70423
O         46.51420       22.92528       75.91630
H         47.00074       22.72793       73.40794
H         45.71607       24.72951       74.05478
H         47.26209       25.63467       74.23777
N         47.45667       24.79145       76.71660
C         47.64496       24.24462       78.05761
C         48.76364       23.20844       78.05718
O         48.54287       22.08505       78.48825
C         47.92737       25.38354       79.07759
C         48.12506       24.84248       80.50026
O         49.05471       26.13230       78.70248
H         47.71955       25.77090       76.52984
H         46.69443       23.77143       78.39645
H         47.02628       26.04245       79.07332
H         48.94367       27.03906       79.09147
H         48.26325       25.68593       81.20868
H         47.23947       24.25313       80.81890
H         49.02740       24.19604       80.55401
N         50.00996       23.55640       77.63309
C         51.20031       22.71099       77.76191
C         51.10516       21.40883       76.97544
O         50.14286       21.20498       76.24804
C         52.48513       23.51364       77.35423
C         52.46206       23.93518       75.85457
C         52.68123       24.71427       78.30348
C         53.73517       24.64888       75.39568
H         50.11843       24.50773       77.26099
H         51.30130       22.43041       78.83377
H         53.36962       22.86030       77.50636
H         51.60219       24.60126       75.63585
H         52.35370       23.02484       75.22678
H         52.69781       24.36220       79.35692
H         53.65102       25.21642       78.11773
H         51.87605       25.46901       78.19850
H         54.62443       24.00854       75.57322
H         53.66450       24.86695       74.30881
H         53.86284       25.61785       75.91998
N         52.12034       20.49320       77.06051
C         52.17685       19.27370       76.26608
C         52.43408       18.06970       77.16721
O         53.34442       17.29981       76.90151
C         53.31388       19.48005       75.24344
C         53.39616       18.47849       74.13259
O         54.32107       18.68426       73.17787
O         52.57723       17.58046       74.01183
H         52.93014       20.69837       77.66447
H         51.21560       19.13095       75.72504
H         54.28647       19.54234       75.77693
H         53.14849       20.45868       74.74489
N         51.69470       17.87778       78.29456
C         51.95560       16.80449       79.25740
C         53.40130       16.86546       79.75744
O         53.83171       17.93936       80.15663
C         50.94380       16.90837       80.42418
C         51.15642       15.87376       81.50756
C         50.34305       14.72961       81.57667
C         52.16144       16.05664       82.47593
C         50.54255       13.78213       82.58695
C         52.35007       15.11331       83.48893
C         51.54337       13.97508       83.54309
H         50.94268       18.55499       78.49717
H         51.77037       15.83249       78.75577
H         49.93341       16.77336       79.97832
H         50.95732       17.91764       80.89093
H         49.56344       14.56428       80.84396
H         52.79089       16.93673       82.45745
H         49.91948       12.89841       82.63060
H         53.12020       15.26743       84.23394
H         51.69203       13.24479       84.32802
N         54.20987       15.75437       79.80002
C         55.59122       15.75637       80.27396
C         56.52728       16.62980       79.46017
O         57.56804       17.02107       79.96793
C         56.03870       14.29837       80.07642
C         54.75369       13.53976       80.28498
C         53.76476       14.40335       79.50946
H         55.58776       16.04458       81.34905
H         56.31597       14.12751       79.00823
H         56.89639       13.98753       80.71060
H         54.77630       12.47275       79.97608
H         54.50350       13.59731       81.36928
H         53.82857       14.23382       78.41165
H         52.75065       14.16888       79.89310
N         56.28866       16.82694       78.13304
C         57.23999       17.45653       77.22302
C         57.45734       18.94074       77.50119
O         58.31569       19.51863       76.84738
C         56.79075       17.26551       75.75274
C         56.64408       15.78178       75.35881
C         56.23657       15.64148       73.92166
O         55.07386       15.03956       73.60680
O         56.96034       16.05847       73.03198
H         55.42887       16.42714       77.74432
H         58.21689       16.93662       77.34066
H         57.54893       17.72863       75.08316
H         55.82269       17.78193       75.59252
H         55.87106       15.28375       75.97878
H         57.60643       15.25042       75.51642
N         56.73677       19.62981       78.43450
C         56.94460       21.03675       78.71922
H         57.74951       21.48522       78.09917
H         56.00456       21.59497       78.52764
H         57.22425       21.15714       79.78693
H         56.00056       19.15842       78.97570
Ca        53.80336       18.16973       71.06217
O         50.69063       16.75215       71.40621
H         50.47839       17.30636       72.19857
H         50.04083       17.04375       70.71843
O         52.87481       15.10925       69.24191
H         53.17210       14.33406       68.70332
H         52.47859       15.72732       68.57888
O         52.52822       14.18249       72.19501
H         53.19335       13.54770       71.82702
H         51.65307       13.75309       72.02224
O         56.41267       17.20243       70.11652
H         56.54182       18.08667       70.54371
H         57.08027       17.17961       69.38654

Ca 1.0



