%chk=apoCaM-CA-Ng.loop3.water3.frame634.chk
%nprocshared=20
%mem=10GB
%nosave
#b3lyp/svp scf=(tight,noincore,xqc) Test 
#IOP(5/87=12) Density=Current Pop=(MK,readradii) iop(6/33=2) iop(6/42=6)

apoCaM-CA-Ng.loop3.water3.frame634 

   0  1 
C         -2.93334       47.79215       -6.62040
C         -2.87769       49.25590       -6.95722
O         -3.81957       49.76701       -7.54512
H         -3.80506       47.60026       -5.95939
H         -3.03599       47.19053       -7.54633
H         -2.01715       47.46289       -6.08451
N         -1.80702       50.00459       -6.57720
C         -1.71913       51.44471       -6.78836
C         -1.62109       51.77608       -8.27259
O         -0.74468       51.24693       -8.94368
C         -0.51442       52.00145       -6.00160
C         -0.50560       53.50483       -5.90302
O          0.35728       54.05867       -5.24218
O         -1.46370       54.24593       -6.48987
H         -1.04630       49.53475       -6.06119
H         -2.62038       51.91264       -6.33952
H          0.43595       51.62094       -6.43335
H         -0.58403       51.63065       -4.95791
N         -2.48864       52.66368       -8.84816
C         -2.48350       52.99533      -10.27725
C         -1.17811       53.67425      -10.74219
O         -1.01274       53.86059      -11.93691
C         -3.72259       53.87460      -10.60000
C         -4.17893       53.84398      -12.06969
C         -5.44823       54.69822      -12.25125
C         -6.07859       54.50262      -13.63772
N         -7.27286       55.33566      -13.79242
H         -3.21016       53.08657       -8.24348
H         -2.60170       52.02896      -10.81640
H         -3.54263       54.91450      -10.25808
H         -4.58580       53.46788      -10.02702
H         -4.41588       52.78762      -12.32596
H         -3.38888       54.20900      -12.75791
H         -5.19133       55.76915      -12.09495
H         -6.20837       54.40411      -11.49407
H         -6.36620       53.43323      -13.75516
H         -5.34515       54.75907      -14.43266
H         -7.01262       56.34740      -13.74343
H         -7.70872       55.14356      -14.72341
H         -7.97094       55.11607      -13.04455
N         -0.19906       54.04077       -9.85463
C          1.08579       54.63376      -10.24646
C          2.17717       54.54966       -9.15576
O          3.23045       55.14086       -9.36359
C          0.89160       56.09379      -10.73205
C          0.32869       57.03258       -9.69875
O         -0.04000       56.59257       -8.48420
O          0.19129       58.21374       -9.97145
H         -0.38641       53.90733       -8.86287
H          1.50427       54.05547      -11.09957
H          0.21814       56.11369      -11.61345
H          1.87669       56.49160      -11.06222
N          2.05784       53.79438       -8.01971
C          3.10730       53.67925       -7.01450
C          3.38330       54.95972       -6.24386
O          4.34742       54.97021       -5.49184
H          1.23818       53.20260       -7.87508
H          4.03918       53.35342       -7.52673
H          2.83917       52.89240       -6.27636
N          2.60526       56.07384       -6.37706
C          2.93240       57.37963       -5.80902
C          1.86970       57.85494       -4.82303
O          0.70350       57.93216       -5.17722
C          3.01319       58.41385       -6.95758
C          4.11278       58.23393       -7.98839
N          5.10417       57.31654       -7.87479
O          4.10822       58.97580       -8.95889
H          1.75719       56.01913       -6.95160
H          3.91120       57.36443       -5.28282
H          3.14227       59.43122       -6.52806
H          2.03906       58.39545       -7.49515
H          5.18911       56.69507       -7.06562
H          5.82834       57.24473       -8.60466
N          2.24090       58.29405       -3.58644
C          1.34781       58.95454       -2.64483
C          0.27058       58.05514       -2.08467
O          0.58962       57.00563       -1.54536
H          3.23697       58.24840       -3.32406
H          0.90855       59.85839       -3.12352
H          1.95429       59.30651       -1.78294
N         -1.03368       58.45770       -2.10452
C         -2.13148       57.69714       -1.50260
C         -2.36377       56.36639       -2.21097
O         -1.65905       56.04486       -3.15587
C         -3.42268       58.56194       -1.50137
C         -3.33287       59.71165       -0.51964
C         -3.32300       61.04531       -0.95988
C         -3.28802       59.44947        0.86319
C         -3.26199       62.09503       -0.03443
C         -3.23576       60.49904        1.78520
C         -3.22156       61.82712        1.33872
O         -3.17415       62.85010        2.21678
H         -1.24685       59.37724       -2.52261
H         -1.87616       57.45635       -0.44739
H         -4.31470       57.97774       -1.19673
H         -3.61242       58.92097       -2.53557
H         -3.35978       61.27425       -2.01693
H         -3.30885       58.43079        1.23042
H         -3.25130       63.11951       -0.38439
H         -3.21105       60.27874        2.84570
H         -3.15448       62.70750        3.17432
N         -3.34153       55.52795       -1.75134
C         -3.66936       54.19617       -2.26040
C         -4.12915       54.22847       -3.70922
O         -3.39022       54.69286       -4.56114
C         -2.52136       53.15768       -2.06665
C         -3.10464       51.73515       -2.33473
C         -1.93774       53.25435       -0.64442
C         -2.12333       50.57709       -2.17221
H         -3.89699       55.83808       -0.94027
H         -4.51335       53.82805       -1.63346
H         -1.69412       53.36817       -2.78056
H         -3.49359       51.68558       -3.37397
H         -3.95654       51.55035       -1.64216
H         -1.50947       54.26300       -0.46726
H         -2.71881       53.05564        0.11908
H         -1.10044       52.54080       -0.50934
H         -2.65016       49.62708       -2.40833
H         -1.26591       50.69107       -2.86361
H         -1.76029       50.49881       -1.12788
N         -5.31756       53.66467       -4.06849
C         -5.75859       53.56733       -5.45758
C         -7.11017       54.21316       -5.69678
O         -7.49423       54.31609       -6.85547
C         -5.82423       52.08648       -5.85776
O         -6.77022       51.41887       -5.06464
H         -5.89335       53.22434       -3.33592
H         -5.02973       54.07456       -6.12823
H         -4.81888       51.63842       -5.70416
H         -6.10481       51.99028       -6.92985
H         -6.58133       50.44934       -5.15380
N         -7.92095       54.61747       -4.67518
C         -9.25159       55.15513       -4.92221
C         -9.17115       56.51846       -5.58828
O         -8.12608       57.14884       -5.49927
C        -10.02361       55.26192       -3.60773
H         -7.62444       54.48336       -3.69924
H         -9.77394       54.43108       -5.58487
H        -10.12587       54.25260       -3.15262
H         -9.49440       55.92785       -2.89475
H        -11.02749       55.67749       -3.78381
N        -10.18473       57.04667       -6.33534
C        -11.44708       56.38515       -6.65386
C        -12.60357       57.36733       -6.56490
O        -12.47062       58.45781       -7.10450
C        -11.36633       55.87399       -8.09251
H         -9.99181       57.94406       -6.80925
H        -11.62609       55.49759       -6.02421
H        -12.31354       55.36179       -8.36766
H        -11.18556       56.70806       -8.80403
H        -10.53523       55.14225       -8.18179
N        -13.81502       57.06775       -6.01349
C        -14.19530       55.78828       -5.42140
C        -13.67049       55.65170       -4.01052
O        -13.26189       54.55593       -3.65066
C        -15.73244       55.62788       -5.42838
C        -16.33287       55.49327       -6.84657
C        -16.00604       54.17802       -7.51730
O        -14.85989       53.88872       -7.81993
O        -16.99867       53.31707       -7.81361
H        -14.54964       57.78931       -6.10047
H        -13.79570       54.94746       -6.01542
H        -16.18186       56.51124       -4.92299
H        -16.03150       54.72378       -4.85312
H        -16.01622       56.33753       -7.49571
H        -17.43784       55.54162       -6.74435
N        -13.65130       56.71166       -3.15299
C        -13.15100       56.62354       -1.79424
H        -12.27724       57.29875       -1.67760
H        -13.94660       56.93655       -1.08721
H        -12.83035       55.59486       -1.52420
H        -13.98433       57.63219       -3.47582
Ca        -1.57394       56.46385       -6.11850
O         -3.72857       56.30078       -8.12145
H         -4.41189       56.87996       -7.70124
H         -3.25370       56.89442       -8.75653
O         -1.06316       59.30574       -6.95482
H         -1.07533       60.29343       -7.00944
H         -1.43666       59.00057       -7.81909
O         -3.60847       58.46496       -5.21523
H         -4.47960       57.99942       -5.14728
H         -3.76830       59.20299       -5.85545

Ca 1.0



