%chk=apoCaM-CA-Ng.loop3.water2.frame556.chk
%nprocshared=20
%mem=10GB
%nosave
#b3lyp/svp scf=(tight,noincore,xqc) Test 
#IOP(5/87=12) Density=Current Pop=(MK,readradii) iop(6/33=2) iop(6/42=6)

apoCaM-CA-Ng.loop3.water2.frame556 

   0  1 
C         42.82490        6.86252       83.54360
C         41.79355        5.83027       83.20090
O         40.62851        6.17004       83.04900
H         43.59380        6.89255       82.74174
H         42.36443        7.86943       83.63005
H         43.31231        6.60133       84.50542
N         42.16908        4.53380       83.03013
C         41.23999        3.49377       82.60971
C         40.20120        3.23382       83.68676
O         40.56931        2.81014       84.77426
C         42.02009        2.20086       82.30491
C         41.25180        1.19537       81.50130
O         41.81853        0.17082       81.15559
O         40.03322        1.47119       80.99178
H         43.16880        4.30134       83.14311
H         40.76664        3.84432       81.66510
H         42.40557        1.74761       83.24373
H         42.89707        2.46167       81.67179
N         38.88186        3.48836       83.46273
C         37.85749        3.26885       84.48450
C         37.64130        1.78480       84.77801
O         37.01420        1.47292       85.78144
C         36.53473        3.92437       84.01533
C         35.33155        3.82572       84.97240
C         35.59291        4.45943       86.34536
C         34.33422        4.39293       87.22095
N         34.58198        4.97235       88.54039
H         38.60972        3.89305       82.55294
H         38.20137        3.78103       85.40915
H         36.23771        3.45248       83.05342
H         36.73209        5.00153       83.82003
H         35.02873        2.76532       85.09883
H         34.47921        4.35290       84.49047
H         35.89240        5.52176       86.21277
H         36.41281        3.91640       86.86064
H         34.01918        3.33227       87.34231
H         33.50818        4.94947       86.72439
H         34.87109        5.97302       88.44650
H         33.70321        4.92467       89.10502
H         35.33006        4.43284       89.03383
N         38.05612        0.82007       83.90984
C         37.74126       -0.59815       84.06032
C         38.97245       -1.49591       84.07254
O         38.80252       -2.69077       84.27402
C         36.74924       -1.01293       82.94900
C         37.13853       -0.51290       81.57779
O         38.33059       -0.81815       81.04087
O         36.38201        0.22163       80.96329
H         38.54390        1.10596       83.05113
H         37.23681       -0.79083       85.03350
H         35.75875       -0.56946       83.19206
H         36.62288       -2.11736       82.94267
N         40.23720       -1.01649       83.90304
C         41.41807       -1.85864       84.00089
C         41.55460       -2.93993       82.93982
O         42.53269       -3.66771       83.04232
H         40.39155       -0.01036       83.76726
H         41.42294       -2.34197       85.00345
H         42.32306       -1.21549       83.93715
N         40.66097       -3.13408       81.91470
C         40.81819       -4.21350       80.93392
C         40.92146       -3.68956       79.51004
O         40.63267       -2.52654       79.26705
C         39.65732       -5.24704       81.05066
C         38.48765       -5.02932       80.09991
N         37.75505       -3.89584       80.10862
O         38.22149       -5.90031       79.28418
H         39.84663       -2.52046       81.83526
H         41.75721       -4.75972       81.16434
H         39.31222       -5.31189       82.10608
H         40.07313       -6.24478       80.79060
H         37.95659       -3.15098       80.77814
H         36.99094       -3.76093       79.42837
N         41.27180       -4.54157       78.50658
C         41.18888       -4.22765       77.08909
C         41.92014       -2.96504       76.68570
O         43.11090       -2.83954       76.93052
H         41.55422       -5.50159       78.75708
H         40.11339       -4.13460       76.82283
H         41.59385       -5.08457       76.51031
N         41.23337       -1.99130       76.02148
C         41.79255       -0.71735       75.57687
C         42.30582        0.13538       76.77812
O         41.85790       -0.26358       78.04119
C         40.73366        0.03690       74.72594
C         40.46319       -0.58429       73.37748
C         39.16963       -1.00713       73.02962
C         41.49624       -0.68832       72.42857
C         38.91517       -1.52313       71.75444
C         41.24019       -1.20680       71.15698
C         39.94653       -1.62292       70.81406
O         39.68227       -2.11041       69.58506
H         40.24059       -2.17286       75.80861
H         42.67636       -0.89110       74.92833
H         41.06457        1.06544       74.48556
H         39.79997        0.09648       75.31082
H         38.35423       -0.92268       73.73715
H         42.49846       -0.35382       72.66509
H         37.91217       -1.83578       71.49330
H         42.04589       -1.27377       70.43647
H         40.36528       -2.18268       68.90284
N         42.37711        1.59398       76.53129
C         43.16841        2.49236       77.41358
C         42.24826        3.34727       78.28654
O         41.59874        2.82084       79.16828
C         44.29418        1.82074       78.27377
C         45.09180        2.87539       79.10658
C         45.28059        0.98096       77.43646
C         45.86785        3.91747       78.28420
H         42.83232        1.67314       75.59088
H         43.69255        3.19917       76.73296
H         43.81479        1.13729       79.00788
H         45.82087        2.34243       79.75426
H         44.40234        3.42077       79.78559
H         46.06085        0.54965       78.10028
H         44.79180        0.12594       76.93763
H         45.77003        1.59086       76.65161
H         45.19343        4.53841       77.66238
H         46.40512        4.60348       78.97161
H         46.62494        3.43712       77.63217
N         42.22393        4.70502       78.14162
C         41.56334        5.63312       79.07019
C         40.03015        5.62968       79.05025
O         39.45784        6.44532       79.76171
C         42.04976        7.06847       78.77616
O         43.44299        7.15513       78.93384
H         42.80721        5.10910       77.39387
H         41.89741        5.39715       80.10414
H         41.59180        7.78882       79.48764
H         41.73676        7.38534       77.75283
H         43.84692        7.13738       78.02761
N         39.29026        4.77157       78.29386
C         37.83183        4.84534       78.18944
C         37.16801        3.67383       78.90003
O         37.63883        2.55801       78.74568
C         37.44010        4.89311       76.70761
H         39.77042        4.04636       77.75036
H         37.46127        5.77976       78.63754
H         37.77611        3.99252       76.16804
H         36.34298        4.95584       76.58109
H         37.89712        5.78189       76.22520
N         36.05841        3.80402       79.69380
C         35.29958        5.03757       79.90302
C         34.71081        5.51768       78.57896
O         34.02582        4.71878       77.95382
C         34.12777        4.78490       80.86607
H         35.70662        2.94546       80.14830
H         35.94759        5.77468       80.40442
H         34.49922        4.44043       81.85041
H         33.55300        5.72307       81.02470
H         33.43702        4.01298       80.46181
N         34.86692        6.77407       78.05693
C         35.56186        7.89522       78.68069
C         36.35677        8.68969       77.65413
O         37.55768        8.84298       77.83433
C         34.59050        8.75597       79.52598
C         33.45300        9.50153       78.80562
C         32.46871        8.58528       78.13602
O         31.80641        7.66073       78.85731
O         32.25021        8.68552       76.93925
H         34.36952        6.96294       77.17398
H         36.29971        7.53891       79.41858
H         35.19890        9.52107       80.05634
H         34.14145        8.10133       80.30526
H         33.87370       10.23091       78.08403
H         32.89573       10.08675       79.56756
N         35.76521        9.22180       76.54752
C         36.49872       10.01318       75.58425
H         37.33316        9.42003       75.15483
H         35.82251       10.32704       74.76011
H         36.90138       10.92469       76.07531
H         34.76527        9.06428       76.36865
Ca        39.97468        0.63830       78.90948
O         39.14181        1.97512       76.56349
H         38.27467        1.70920       76.16653
H         39.59625        2.49901       75.85767
O         37.98055       -1.03776       77.29201
H         37.47399       -0.60450       76.56010
H         38.11018       -1.96964       76.98493

Ca 1.0



