%chk=apoCaM-CA-Ng.loop3.water4.frame127.chk
%nprocshared=20
%mem=10GB
%nosave
#b3lyp/svp scf=(tight,noincore,xqc) Test 
#IOP(5/87=12) Density=Current Pop=(MK,readradii) iop(6/33=2) iop(6/42=6)

apoCaM-CA-Ng.loop3.water4.frame127 

   0  1 
C         61.85037       72.41312        7.33302
C         62.89380       72.86624        8.31203
O         62.55534       73.14643        9.45238
H         61.08424       73.20619        7.20962
H         62.29466       72.19656        6.33768
H         61.36699       71.48754        7.70831
N         64.19518       72.96683        7.92377
C         65.29355       73.38885        8.78517
C         65.08511       74.81050        9.28832
O         65.39747       75.09567       10.43641
C         65.52564       72.38166        9.94322
C         65.77627       70.96426        9.49388
O         65.96469       70.00631       10.42101
O         65.80739       70.66483        8.31037
H         64.43589       72.73717        6.94683
H         66.21372       73.40862        8.15859
H         64.63935       72.37308       10.61089
H         66.40275       72.70567       10.54388
N         64.55813       75.76282        8.46596
C         64.38223       77.15452        8.86118
C         62.90700       77.47466        8.92321
O         62.22092       77.35089        7.91761
C         65.08502       78.07676        7.85375
C         66.57887       77.75072        7.73775
C         67.24479       78.62096        6.67097
C         68.71159       78.21803        6.48328
N         69.34219       79.02171        5.43830
H         64.26082       75.49406        7.51544
H         64.83138       77.33869        9.86241
H         64.95603       79.13660        8.16764
H         64.61194       77.94523        6.85497
H         66.69651       76.68651        7.43862
H         67.07682       77.90192        8.72094
H         67.17737       79.69125        6.96516
H         66.71208       78.48061        5.70444
H         68.76288       77.14372        6.19484
H         69.26375       78.35155        7.43990
H         70.33160       78.70704        5.31653
H         68.83392       78.89513        4.53260
H         69.33505       80.03151        5.70967
N         62.34973       77.87196       10.09935
C         60.93075       78.14715       10.27084
C         60.72635       79.57745       10.76498
O         61.66659       80.21676       11.21745
C         60.39544       77.09318       11.25910
C         58.99946       77.31731       11.74074
O         57.90868       77.26748       10.96332
O         58.83889       77.57411       12.91257
H         62.95424       77.95108       10.93294
H         60.38878       78.04812        9.30523
H         61.05425       77.12359       12.15869
H         60.47772       76.07883       10.81539
N         59.50007       80.15765       10.64833
C         59.18852       81.50877       11.08267
C         59.21895       81.62909       12.58412
O         59.84137       82.54565       13.10061
H         58.74124       79.62323       10.20000
H         58.15406       81.74644       10.76628
H         59.85480       82.25077       10.59161
N         58.55634       80.71642       13.34800
C         58.46116       80.77940       14.79964
C         59.40418       79.78241       15.48493
O         59.30127       79.60784       16.69111
C         56.98057       80.60713       15.20684
C         56.46964       79.16809       15.00625
N         56.13513       78.56855       16.29178
O         55.37450       79.08925       14.13067
H         58.09967       79.92734       12.87249
H         58.76434       81.78775       15.15771
H         56.34985       81.32908       14.64240
H         56.88259       80.88369       16.28010
H         55.35530       79.10519       16.73499
H         55.78126       77.61119       16.11680
N         60.41055       79.16583       14.79295
C         61.41143       78.29195       15.39751
C         60.97713       76.84415       15.56447
O         61.82031       76.03951       15.92931
H         60.55614       79.40581       13.80278
H         61.78998       78.72600       16.34820
H         62.27273       78.25276       14.69528
N         59.70388       76.43626       15.31234
C         59.22094       75.04882       15.35676
C         57.69929       75.01168       15.25366
O         57.08179       76.01748       14.93419
C         59.77749       74.16492       14.20091
C         61.24845       73.83852       14.25291
C         62.09408       74.16595       13.17908
C         61.78309       73.15838       15.36076
C         63.44893       73.82606       13.21805
C         63.14029       72.82518       15.39906
C         63.97807       73.15724       14.32521
O         65.28718       72.83487       14.34349
H         59.02521       77.18172       15.13822
H         59.47645       74.62611       16.35218
H         59.51525       74.64494       13.23141
H         59.26567       73.17899       14.22178
H         61.70852       74.67161       12.30564
H         61.14890       72.88504       16.19400
H         64.08733       74.07767       12.38427
H         63.53739       72.30439       16.26088
H         65.69181       72.36820       15.08864
N         57.01118       73.87249       15.54302
C         55.55238       73.85016       15.61404
C         55.12550       74.83732       16.68809
O         54.35850       75.72754       16.36762
C         55.00728       72.41074       15.83975
C         55.39124       71.45719       14.66919
C         53.47734       72.39725       16.03043
C         54.79293       71.82496       13.30091
H         57.54223       73.02389       15.79217
H         55.12977       74.20483       14.65128
H         55.46232       72.00797       16.77167
H         55.04825       70.43102       14.92186
H         56.49442       71.41555       14.56091
H         53.11924       71.35782       16.18695
H         53.18028       72.97557       16.91644
H         52.94890       72.84242       15.16330
H         55.11789       71.08340       12.54272
H         53.68421       71.81261       13.32208
H         55.13696       72.81915       12.96060
N         55.67252       74.81649       17.94183
C         55.44470       75.89640       18.90754
C         54.02106       75.95589       19.44452
O         53.69724       76.94099       20.09390
C         56.46026       75.82973       20.05705
O         57.75854       75.91315       19.53231
H         56.36385       74.08372       18.16184
H         55.63565       76.85751       18.38265
H         56.33897       74.87614       20.61503
H         56.28690       76.69238       20.74166
H         58.36879       76.02210       20.30688
N         53.10440       74.97728       19.18484
C         51.69305       75.05341       19.55156
C         51.00295       76.23895       18.87981
O         49.96052       76.66977       19.35304
C         51.51192       75.04449       21.07657
H         53.40373       74.14336       18.67291
H         51.18357       74.13656       19.18024
H         51.99265       74.13822       21.50317
H         51.94861       75.94371       21.55396
H         50.43016       75.00467       21.32923
N         51.51860       76.78836       17.74012
C         50.93660       77.91588       17.03023
C         50.59637       77.53518       15.60285
O         50.95376       76.45300       15.15588
C         51.94664       79.06698       17.02292
H         52.37001       76.39004       17.33980
H         50.00530       78.24985       17.53567
H         52.87926       78.75276       16.50354
H         51.53579       79.95701       16.50290
H         52.20325       79.35178       18.06486
N         49.86765       78.39480       14.83226
C         49.49946       78.15641       13.43910
C         48.64742       76.90245       13.23928
O         48.37704       76.56576       12.09381
C         50.74771       78.12302       12.52746
C         51.64307       79.35688       12.71831
C         52.69967       79.41229       11.65491
O         52.77979       80.38495       10.92168
O         53.54935       78.38398       11.48816
H         49.55389       79.28272       15.25278
H         48.89277       79.02230       13.09030
H         50.39238       78.10096       11.47240
H         51.34925       77.20746       12.70427
H         52.12805       79.31249       13.71790
H         51.03202       80.28414       12.66299
N         48.17294       76.16343       14.28444
C         47.42482       74.94231       14.08481
H         46.51190       75.14281       13.48656
H         48.06063       74.19663       13.56082
H         47.12547       74.51900       15.06754
H         48.33122       76.45841       15.25648
Ca        56.23118       78.08204       12.25189
O         55.52374       76.89057        9.19156
H         55.06575       77.54717        8.60965
H         55.36373       76.01599        8.75570
O         53.76198       75.90137       13.08188
H         53.46721       76.28921       13.94325
H         53.01429       75.31486       12.80416
O         55.89242       74.68441       11.21318
H         56.63980       74.03940       11.28734
H         55.15628       74.16703       10.79881
O         56.10124       80.43369       10.83555
H         55.49162       80.63945       11.58780
H         55.53650       80.46755       10.02515

Ca 1.0



