%chk=apoCaM-CA-Ng.loop3.water5.frame416.chk
%nprocshared=20
%mem=10GB
%nosave
#b3lyp/svp scf=(tight,noincore,xqc) Test 
#IOP(5/87=12) Density=Current Pop=(MK,readradii) iop(6/33=2) iop(6/42=6)

apoCaM-CA-Ng.loop3.water5.frame416 

   0  1 
C         99.93610       62.13564      100.56462
C        100.02779       60.63981      100.57600
O         99.76718       60.04342      101.61157
H         98.90445       62.44016      100.83904
H        100.64999       62.55762      101.30237
H        100.17245       62.54909       99.56187
N        100.40500       59.95682       99.45859
C        100.48861       58.50351       99.43072
C         99.09104       57.92498       99.60027
O         98.23644       58.18795       98.76513
C        101.14381       58.03403       98.10986
C        101.43538       56.55522       98.05667
O        101.13394       55.74179       99.08790
O        101.97905       56.08840       97.06852
H        100.65465       60.49060       98.61104
H        101.16114       58.18179      100.25794
H        102.11825       58.55934       97.99739
H        100.49998       58.31358       97.24757
N         98.79263       57.13623      100.67129
C         97.48017       56.54317      100.90685
C         96.93917       56.96297      102.26374
O         97.63071       56.82845      103.26342
C         97.58608       55.01935      100.76690
C         96.26220       54.31126      101.12137
C         96.25593       52.83916      100.69325
C         96.02545       52.69716       99.17684
N         96.05357       51.29531       98.76832
H         99.54183       56.92171      101.34748
H         96.75234       56.86184      100.12719
H         98.39240       54.61007      101.41440
H         97.86780       54.83050       99.71051
H         95.38626       54.81868      100.65971
H         96.14384       54.36903      102.22575
H         95.41053       52.32831      101.20309
H         97.20193       52.35040      101.01372
H         96.79045       53.25117       98.59516
H         95.02890       53.13007       98.92915
H         95.81130       51.23306       97.75286
H         97.01419       50.90796       98.91203
H         95.35890       50.73994       99.31811
N         95.66654       57.44597      102.35562
C         95.04156       57.91784      103.58453
C         93.84539       57.04035      103.93878
O         93.11663       56.63879      103.04311
C         94.61117       59.37721      103.35103
C         94.08451       60.02029      104.59616
O         92.95853       60.48402      104.61670
O         94.86683       60.11741      105.68665
H         95.09725       57.49346      101.49562
H         95.76557       57.90508      104.42911
H         93.84792       59.42277      102.54119
H         95.49467       59.96679      103.02517
N         93.58508       56.69460      105.23536
C         92.46305       55.84442      105.62267
C         91.08160       56.45065      105.39177
O         90.11191       55.72344      105.55205
H         94.22548       57.01607      105.97601
H         92.53785       55.59491      106.70343
H         92.54267       54.89327      105.05271
N         90.90298       57.75456      105.02867
C         89.60226       58.35445      104.71951
C         89.56388       58.86866      103.28171
O         88.54285       59.41616      102.88608
C         89.34541       59.57024      105.64336
C         89.27450       59.24122      107.10919
N         88.28354       58.46320      107.59980
O         90.09940       59.71995      107.87231
H         91.72797       58.36059      104.95612
H         88.78030       57.61452      104.83804
H         88.38485       60.05798      105.36824
H         90.15779       60.31156      105.48116
H         87.55996       58.07435      106.97858
H         88.22711       58.27101      108.61111
N         90.64751       58.78884      102.45460
C         90.71215       59.43183      101.15690
C         90.81407       60.94726      101.26028
O         90.88907       61.58250      100.21960
H         91.48900       58.29219      102.75060
H         89.84429       59.12019      100.53765
H         91.63864       59.09378      100.64079
N         90.84721       61.59763      102.46519
C         91.00349       63.04070      102.60678
C         90.83314       63.44451      104.06316
O         91.49040       62.88457      104.92908
C         92.39230       63.50353      102.11554
C         92.53440       65.00627      102.22615
C         91.67092       65.85534      101.51049
C         93.52142       65.57214      103.05018
C         91.79014       67.24266      101.62020
C         93.64087       66.96180      103.15585
C         92.77423       67.80155      102.44060
O         92.87572       69.14248      102.53439
H         90.76207       61.05484      103.32978
H         90.21459       63.53817      102.00305
H         92.54742       63.22443      101.05427
H         93.17541       62.98819      102.71583
H         90.90084       65.44551      100.86970
H         94.19668       64.94019      103.61346
H         91.11421       67.88330      101.06790
H         94.40561       67.38440      103.79488
H         93.54267       69.57061      103.08953
N         89.98132       64.45041      104.39440
C         89.73413       64.85199      105.77092
C         88.71179       63.90897      106.36804
O         88.91481       63.45966      107.48699
C         89.31129       66.35028      105.86238
C         90.44696       67.23395      105.27013
C         89.03221       66.74058      107.33146
C         90.16921       68.73761      105.29025
H         89.47747       64.94379      103.64150
H         90.67658       64.78603      106.36420
H         88.37831       66.50677      105.27687
H         90.60652       66.94970      104.21106
H         91.39667       67.05018      105.82019
H         89.94626       66.61770      107.95165
H         88.68166       67.78902      107.40974
H         88.22639       66.11633      107.76580
H         90.10080       69.12256      106.32790
H         91.01227       69.26947      104.79974
H         89.23333       68.96792      104.74076
N         87.60908       63.51891      105.66008
C         86.61172       62.62416      106.23389
C         85.75697       63.34549      107.26424
O         85.10620       62.67147      108.04898
C         85.72914       61.98902      105.15067
O         84.99723       62.97409      104.47507
H         87.49968       63.83516      104.68459
H         87.15605       61.78720      106.72828
H         85.03508       61.26268      105.63209
H         86.38018       61.44470      104.42975
H         84.38737       62.48782      103.86155
N         85.71469       64.71611      107.31952
C         84.98390       65.50609      108.30950
C         85.58556       65.41074      109.71224
O         85.08555       66.07542      110.60894
C         83.48367       65.17524      108.28598
H         86.22487       65.25850      106.60793
H         85.07900       66.57570      108.01581
H         82.92872       65.86549      108.95522
H         83.08861       65.30130      107.25470
H         83.27722       64.13997      108.62199
N         86.67734       64.63615      109.97182
C         87.32764       64.53277      111.26964
C         88.01626       65.82564      111.65131
O         88.71311       66.38847      110.81823
C         88.40673       63.44233      111.20762
H         87.08813       64.08093      109.21494
H         86.59512       64.21372      112.04336
H         89.17774       63.70179      110.45194
H         88.89875       63.32568      112.19548
H         87.95080       62.46889      110.92939
N         87.96842       66.27662      112.94108
C         88.79625       67.36537      113.46560
C         88.43326       68.74072      112.92088
O         89.10658       69.69270      113.29289
C         90.30437       67.05389      113.25820
C         90.71160       65.72815      113.92319
C         92.15168       65.40196      113.65257
O         93.02174       65.28151      114.67291
O         92.53567       65.22125      112.50743
H         87.39616       65.75457      113.62201
H         88.63154       67.42756      114.56481
H         90.92014       67.86637      113.70264
H         90.54862       67.01879      112.17743
H         90.09716       64.89114      113.53469
H         90.54353       65.80551      115.01939
N         87.37011       68.94636      112.09003
C         86.99574       70.25732      111.59458
H         85.97311       70.50535      111.94857
H         87.68352       71.05867      111.93927
H         87.00240       70.24784      110.48535
H         86.77239       68.15938      111.80529
Ca        92.60417       61.31465      107.38918
O         93.93636       63.98655      107.13273
H         94.43958       64.76493      106.78584
H         94.12909       63.97712      108.10415
O         92.48006       60.53151      110.37971
H         91.82753       60.97620      110.97702
H         93.25453       60.32901      110.96214
O         91.59888       63.37741      109.41928
H         90.97328       62.78516      108.93152
H         91.52900       64.24833      108.95432
O         93.08255       58.40237      108.09338
H         93.20148       57.59772      108.65708
H         94.00468       58.69592      107.88472
O         95.50065       61.11039      108.48902
H         96.06518       61.09553      109.30179
H         96.07558       61.51788      107.79337

Ca 1.0



