%chk=apoCaM-CA-Ng.loop3.water3.frame690.chk
%nprocshared=20
%mem=10GB
%nosave
#b3lyp/svp scf=(tight,noincore,xqc) Test 
#IOP(5/87=12) Density=Current Pop=(MK,readradii) iop(6/33=2) iop(6/42=6)

apoCaM-CA-Ng.loop3.water3.frame690 

   0  1 
C         99.37743       80.89598       99.24394
C        100.29625       81.01014      100.42018
O        100.01111       81.78872      101.31910
H         98.51275       81.58569       99.35452
H         99.92519       81.15443       98.31413
H         98.99716       79.85594       99.17338
N        101.43298       80.25895      100.47530
C        102.36207       80.29967      101.59489
C        103.68872       80.85900      101.11998
O        104.26352       80.32285      100.18142
C        102.49445       78.89667      102.22011
C        103.18664       78.89827      103.56030
O        103.31494       77.74254      104.23837
O        103.59412       79.93318      104.06386
H        101.65015       79.63127       99.68519
H        101.95599       80.95139      102.38363
H        103.01518       78.21097      101.51807
H        101.47802       78.49332      102.40077
N        104.22090       81.96803      101.71240
C        105.43426       82.62938      101.23787
C        106.66658       81.73147      101.35065
O        107.70252       82.08791      100.81202
C        105.69619       83.95750      102.00683
C        104.49026       84.92548      101.97538
C        104.74661       86.29861      102.62046
C        105.15630       86.22959      104.10144
N        105.21779       87.57109      104.68477
H        103.71898       82.36558      102.51223
H        105.27212       82.87704      100.16520
H        106.57272       84.46529      101.54834
H        105.94262       83.71990      103.06343
H        103.62372       84.48169      102.50220
H        104.19503       85.09927      100.91887
H        103.79611       86.87226      102.54507
H        105.52704       86.84475      102.04883
H        106.15501       85.74856      104.18874
H        104.41890       85.62420      104.67320
H        105.87365       88.17779      104.14098
H        104.26369       88.00088      104.68757
H        105.55641       87.50432      105.67182
N        106.63315       80.58056      102.08478
C        107.77898       79.70537      102.29270
C        107.38655       78.23378      102.18217
O        108.02575       77.52159      101.41578
C        108.50878       80.04256      103.62138
C        107.69863       80.14596      104.89186
O        106.35928       80.05079      104.88608
O        108.27246       80.37996      105.94244
H        105.77732       80.35645      102.59781
H        108.55279       79.88905      101.51268
H        108.99493       81.03471      103.49549
H        109.31739       79.29201      103.76509
N        106.37087       77.69822      102.91939
C        106.03062       76.28650      102.95250
C        106.15819       75.69900      104.35392
O        105.99352       74.49954      104.48616
H        105.79971       78.31476      103.50031
H        106.70348       75.70668      102.28345
H        104.99005       76.14475      102.58854
N        106.47253       76.47741      105.44028
C        106.75922       75.94965      106.76928
C        105.79511       76.50701      107.81255
O        105.64265       77.71117      107.91865
C        108.19869       76.35403      107.14801
C        109.21635       75.81174      106.17369
N        109.38923       74.47845      106.01943
O        109.89852       76.58890      105.52174
H        106.58301       77.48941      105.33380
H        106.70087       74.84095      106.78323
H        108.44457       75.97739      108.16423
H        108.26895       77.46495      107.16543
H        108.83387       73.80603      106.56779
H        110.08884       74.11551      105.35499
N        105.17213       75.65730      108.67886
C        104.33727       76.08080      109.79579
C        103.01787       76.68737      109.37350
O        102.34235       76.11343      108.53154
H        105.35805       74.64774      108.59600
H        104.90536       76.75901      110.47132
H        104.08638       75.17321      110.38523
N        102.53545       77.79782      110.00798
C        101.22092       78.37945      109.72578
C        101.15888       78.99970      108.33669
O        102.14040       78.96620      107.60823
C        100.86889       79.46430      110.78303
C        100.59254       78.91484      112.16237
C         99.53368       78.00935      112.36693
C        101.34353       79.34693      113.26648
C         99.23433       77.54698      113.65152
C        101.03985       78.88505      114.55185
C         99.98486       77.98746      114.75007
O         99.69673       77.56364      115.99742
H        103.10169       78.20777      110.76726
H        100.44750       77.58218      109.77102
H         99.93445       79.99328      110.51336
H        101.67450       80.22993      110.80007
H         98.92647       77.67125      111.53658
H        102.15228       80.05442      113.13644
H         98.41197       76.85608      113.79274
H        101.61864       79.23476      115.39701
H         98.96587       76.95518      116.17866
N         99.99956       79.60087      107.92678
C         99.77050       80.28450      106.65850
C        100.71098       81.47452      106.48130
O        101.91855       81.28891      106.47446
C         99.82869       79.31184      105.44322
C         99.42537       80.01429      104.11438
C         98.95200       78.06728      105.66972
C         98.00719       80.60248      104.06729
H         99.18905       79.57890      108.56269
H         98.72947       80.66575      106.70028
H        100.87162       78.94826      105.32259
H         99.51145       79.28688      103.28145
H        100.13749       80.83280      103.91218
H         99.30741       77.49440      106.55124
H         97.89125       78.34257      105.83989
H         99.01407       77.39291      104.78838
H         97.86542       81.40219      104.81956
H         97.83442       81.06171      103.07165
H         97.23898       79.81823      104.21842
N        100.21254       82.72362      106.23872
C        101.06152       83.85643      105.88925
C        100.61296       85.12431      106.58701
O        100.19633       86.05580      105.91042
C        101.03275       84.04880      104.35700
O        101.46296       82.90564      103.67921
H         99.19257       82.84543      106.15913
H        102.12339       83.67282      106.16856
H        101.68198       84.90334      104.06435
H         99.99284       84.26463      104.03111
H        102.23155       82.52370      104.17585
N        100.72575       85.26095      107.93893
C        100.40088       86.51804      108.61124
C        101.66617       87.15602      109.16594
O        102.66635       86.46378      109.28313
C         99.36733       86.27404      109.71158
H        101.10958       84.47965      108.49258
H         99.97145       87.22120      107.87226
H         99.09571       87.22004      110.22264
H         98.44656       85.83654      109.27078
H         99.77135       85.56987      110.46969
N        101.76205       88.48764      109.46642
C        100.71126       89.48702      109.28751
C        100.46265       90.24221      110.58785
O        101.27242       90.11185      111.49756
C        101.18685       90.44738      108.18393
H        102.68293       88.82985      109.78832
H         99.76693       89.02239      108.96953
H        102.14278       90.93015      108.48137
H        101.36114       89.87750      107.24601
H        100.46960       91.25036      107.94980
N         99.40228       91.08145      110.78874
C         98.25909       91.24958      109.89250
C         97.40935       89.99355      109.90651
O         97.20304       89.39862      108.85659
C         97.43754       92.48561      110.32420
C         96.24132       92.76141      109.39919
C         95.55110       94.03741      109.78828
O         96.15224       95.09947      109.74349
O         94.26184       94.01919      110.17590
H         99.38868       91.60869      111.67647
H         98.59873       91.46867      108.86616
H         98.12059       93.36376      110.28915
H         97.07518       92.37208      111.36920
H         95.51961       91.91849      109.46314
H         96.58478       92.85386      108.34621
N         96.87646       89.53465      111.07204
C         96.05168       88.34819      111.13201
H         95.14694       88.48242      110.50193
H         96.62467       87.46640      110.77636
H         95.73091       88.16401      112.17953
H         97.06137       90.04314      111.95012
Ca       105.04398       80.24682      106.70400
O        103.71235       81.69355      108.88237
H        103.03897       82.32031      109.24728
H        103.83402       81.01204      109.59029
O        106.90010       80.27679      108.93863
H        107.41185       79.64395      108.37512
H        107.56847       80.64203      109.56936
O        105.20276       83.01337      105.56432
H        104.77178       83.49514      106.31398
H        106.12295       82.83215      105.88241

Ca 1.0



