%chk=apoCaM-CA-Ng.loop4.water3.frame162.chk
%nprocshared=20
%mem=10GB
%nosave
#b3lyp/svp scf=(tight,noincore,xqc) Test 
#IOP(5/87=12) Density=Current Pop=(MK,readradii) iop(6/33=2) iop(6/42=6)

apoCaM-CA-Ng.loop4.water3.frame162 

   -3  1 
C         55.11821       81.02740       34.29918
C         53.65736       81.25770       34.05426
O         52.92717       80.29499       33.92392
H         55.71747       81.51750       33.50464
H         55.39394       81.45896       35.28506
H         55.35056       79.94097       34.31157
N         53.17777       82.53052       33.99952
C         51.78899       82.96903       33.85610
C         50.69361       81.90396       33.88002
O         50.42356       81.30099       32.86314
C         51.65413       83.97449       32.68753
C         52.12378       83.62943       31.27720
O         52.54663       82.41964       30.83014
O         52.16326       84.55445       30.48138
H         53.86833       83.28914       34.11460
H         51.59072       83.57491       34.76779
H         52.29034       84.83895       32.98302
H         50.60842       84.35011       32.63955
N         49.99428       81.66743       35.03505
C         48.83370       80.78335       35.20852
C         47.57715       81.42762       34.62262
O         46.68719       81.74740       35.39981
C         49.07402       79.31018       34.75737
C         47.85443       78.39166       35.04518
C         50.33129       78.72025       35.42010
C         47.46859       78.25457       36.52621
H         50.30179       82.16416       35.88517
H         48.65823       80.74323       36.30639
H         49.23290       79.29050       33.65874
H         48.08592       77.37645       34.65687
H         46.96936       78.76671       34.48923
H         50.50320       77.67996       35.06986
H         51.21802       79.31140       35.16003
H         50.25860       78.72515       36.52573
H         47.16059       79.22687       36.95874
H         46.60878       77.55947       36.61987
H         48.30095       77.83765       37.12768
N         47.44408       81.71336       33.29440
C         46.33376       82.50040       32.77535
C         45.03141       81.69502       32.74849
O         44.13272       82.07585       33.48537
C         46.73637       83.18061       31.44630
C         45.63623       84.04083       30.89464
O         45.19037       83.82559       29.77916
O         45.14647       85.06285       31.62249
H         48.19190       81.46400       32.64373
H         46.18521       83.35973       33.47125
H         47.06892       82.45015       30.69030
H         47.61967       83.82860       31.63920
N         44.80325       80.58712       31.97796
C         45.75442       80.03225       31.02632
C         45.25167       78.78681       30.30800
O         44.14038       78.35506       30.57998
H         43.88269       80.13513       32.08640
H         46.68348       79.78240       31.57162
H         45.92015       80.78370       30.25092
N         45.99174       78.10556       29.37581
C         47.34272       78.41401       28.89638
C         48.32683       78.47730       30.05679
O         48.93965       79.51624       30.26175
C         47.37238       79.67921       28.00449
C         46.37557       79.59925       26.88247
O         46.43690       78.69558       26.06409
O         45.41174       80.53360       26.77175
H         45.56207       77.25538       28.97695
H         47.66714       77.58688       28.22548
H         48.38741       79.78224       27.56432
H         47.18115       80.59705       28.58492
N         48.51595       77.43374       30.91349
C         47.92498       76.11414       30.77157
C         46.89174       75.85267       31.83402
O         46.54786       76.74871       32.59233
H         49.13103       77.57922       31.72921
H         48.74319       75.36576       30.84435
H         47.43705       75.96276       29.79019
N         46.35226       74.60869       31.93792
C         45.34379       74.24089       32.92160
C         45.92381       73.38062       34.03899
O         45.17403       73.03554       34.94007
C         44.08058       73.66578       32.22619
C         44.26286       72.58099       31.14300
C         44.85802       71.28311       31.61858
N         44.16006       70.12728       31.52509
O         45.99581       71.26196       32.05330
H         46.71303       73.87266       31.31185
H         44.98800       75.14306       33.46885
H         43.60180       74.51947       31.69629
H         43.35651       73.31966       32.99581
H         44.88325       72.97607       30.31168
H         43.25535       72.38177       30.71670
H         43.20325       70.11272       31.14385
H         44.58232       69.23699       31.82533
N         47.26523       73.11233       34.11934
C         47.89288       72.51922       35.30214
C         48.66332       71.24138       35.00834
O         49.19590       70.68516       35.96280
C         48.81428       73.56518       36.00040
C         47.99043       74.73377       36.55532
C         49.92994       74.09855       35.08433
H         47.88871       73.42218       33.36406
H         47.11915       72.22823       36.04649
H         49.29707       73.07539       36.87548
H         47.22767       74.35979       37.27136
H         48.65258       75.43868       37.10085
H         47.47415       75.27990       35.73922
H         50.54951       73.26562       34.69177
H         49.51198       74.67278       34.23154
H         50.59364       74.78355       35.65383
N         48.74436       70.67864       33.76706
C         49.41238       69.39994       33.53321
C         50.49957       69.45660       32.45904
O         51.18107       68.45560       32.30060
C         48.35353       68.35226       33.12322
C         47.25511       68.19736       34.14904
N         47.52427       67.75566       35.39906
O         46.10362       68.46499       33.84133
H         48.26075       71.12560       32.97711
H         49.90833       69.04762       34.46356
H         48.82917       67.36051       32.96563
H         47.89752       68.67354       32.16281
H         48.48480       67.51339       35.67922
H         46.76460       67.64899       36.08826
N         50.67074       70.53358       31.62929
C         51.56160       70.49796       30.46617
C         52.32246       71.81063       30.29850
O         51.70437       72.86094       30.38412
C         50.69605       70.33614       29.19785
C         49.76642       69.14675       29.23552
C         50.23597       67.83023       29.07603
C         48.39177       69.36674       29.41516
C         49.33272       66.75726       29.08458
C         47.49805       68.29745       29.43930
C         47.95997       66.99075       29.26850
O         47.07517       65.97346       29.27948
H         50.04408       71.34331       31.71628
H         52.25694       69.63006       30.49836
H         51.33140       70.25948       28.28955
H         50.08459       71.25787       29.08929
H         51.29079       67.63438       28.92490
H         48.01103       70.37125       29.54929
H         49.69679       65.74661       28.94451
H         46.44361       68.48985       29.58939
H         47.34294       65.05299       29.15069
N         53.62438       71.80961       29.87773
C         54.33630       72.99162       29.36930
C         54.64361       74.07098       30.39583
O         55.21245       75.07869       29.99520
C         53.58495       73.62894       28.16996
C         53.35912       72.64509       27.01722
C         52.64804       73.31907       25.87890
O         53.15867       74.27157       25.31063
O         51.44227       72.87339       25.47775
H         54.10502       70.90257       29.78436
H         55.32508       72.65277       28.98611
H         54.18919       74.47699       27.77819
H         52.60916       74.04659       28.49536
H         52.74584       71.79354       27.36884
H         54.33405       72.25272       26.65723
N         54.36258       73.94206       31.72072
C         54.67105       74.98986       32.68836
C         55.83403       74.54906       33.54818
O         56.83131       75.25783       33.58470
C         53.42032       75.34741       33.51442
C         52.22751       75.83879       32.66629
C         52.48994       77.12832       31.93246
O         53.32396       77.19360       31.04510
O         51.77354       78.21984       32.24663
H         53.94920       73.06602       32.07002
H         55.00930       75.92059       32.18715
H         53.68040       76.13899       34.25233
H         53.09141       74.44885       34.07998
H         51.37956       76.01284       33.36148
H         51.91266       75.05837       31.94318
N         55.80616       73.36707       34.22334
C         56.93055       72.87111       34.99226
H         57.78620       73.57984       35.00330
H         56.61301       72.68823       36.03827
H         57.28337       71.91745       34.54581
H         54.96968       72.76865       34.16476
Ca        52.12178       80.24713       31.31367
O         54.30785       79.75684       29.18599
H         54.52256       80.71772       29.08087
H         55.12644       79.35979       29.57665
O         50.60984       81.55040       28.44557
H         49.65208       81.71768       28.26150
H         51.00831       82.45470       28.50003
O         51.28127       78.30350       28.18106
H         50.82608       77.50116       27.82135
H         52.03372       77.94293       28.71357

Ca 1.0



