%chk=apoCaM-CA-Ng.loop3.water3.frame742.chk
%nprocshared=20
%mem=10GB
%nosave
#b3lyp/svp scf=(tight,noincore,xqc) Test 
#IOP(5/87=12) Density=Current Pop=(MK,readradii) iop(6/33=2) iop(6/42=6)

apoCaM-CA-Ng.loop3.water3.frame742 

   0  1 
C        104.49184       14.39626       -2.17594
C        105.74345       13.65937       -2.55393
O        105.84401       13.19988       -3.68258
H        103.61534       13.72348       -2.27104
H        104.54106       14.76931       -1.13058
H        104.36155       15.26902       -2.84986
N        106.75961       13.52995       -1.65828
C        108.02462       12.88501       -1.98288
C        107.80214       11.39887       -2.24921
O        107.30882       10.71752       -1.36001
C        109.00545       13.07659       -0.80365
C        110.43252       12.78801       -1.15333
O        111.28161       12.81918       -0.27715
O        110.80498       12.53668       -2.42059
H        106.64127       13.95061       -0.72305
H        108.44522       13.40422       -2.87280
H        108.68234       12.44012        0.04914
H        108.98467       14.12610       -0.45654
N        108.11993       10.82750       -3.44881
C        107.87677        9.40924       -3.72510
C        108.68238        8.53177       -2.78174
O        108.08734        7.82061       -1.98334
C        108.21630        9.04639       -5.19153
C        107.25673        9.69647       -6.19822
C        107.67867        9.37748       -7.63958
C        106.68696        9.97019       -8.64939
N        107.12877        9.72894      -10.02289
H        108.52475       11.42436       -4.18583
H        106.79581        9.19412       -3.56212
H        108.13982        7.94329       -5.32315
H        109.26029        9.35128       -5.42071
H        107.25026       10.79917       -6.06781
H        106.23039        9.30923       -6.01289
H        107.72929        8.27595       -7.78713
H        108.68890        9.80706       -7.81984
H        106.59573       11.06674       -8.48579
H        105.68642        9.50697       -8.49637
H        108.04835       10.19904      -10.18966
H        107.21976        8.70245      -10.20121
H        106.42328       10.12710      -10.68406
N        110.04234        8.50521       -2.84185
C        110.85875        7.66626       -1.97066
C        110.72820        8.10807       -0.51592
O        110.38756        7.26764        0.30527
C        112.30764        7.49434       -2.53002
C        113.00551        8.74345       -2.98989
O        113.44991        9.64934       -2.11916
O        113.13145        8.96315       -4.18452
H        110.50610        9.08533       -3.55436
H        110.46901        6.62260       -2.01102
H        112.18999        6.87330       -3.44599
H        112.94876        6.91689       -1.83000
N        110.93370        9.39863       -0.12304
C        110.82010        9.83882        1.27059
C        112.15561       10.27971        1.84247
O        112.22498       10.56602        3.02938
H        111.18403       10.09600       -0.83744
H        110.46388        9.00780        1.91648
H        110.07630       10.65966        1.34873
N        113.26714       10.30447        1.06080
C        114.63001       10.52395        1.50925
C        115.21670       11.71435        0.76259
O        114.64986       12.11586       -0.24615
C        115.37130        9.21485        1.12005
C        116.78170        9.01775        1.60669
N        117.09166        7.92772        2.34877
O        117.66335        9.79732        1.28463
H        113.16969       10.08653        0.07352
H        114.64665       10.69976        2.60699
H        115.37892        9.13144        0.00893
H        114.76071        8.36503        1.49798
H        116.37186        7.23174        2.59621
H        118.05998        7.75977        2.65592
N        116.38142       12.30102        1.15781
C        117.07550       13.26424        0.31713
C        116.27145       14.50159       -0.01193
O        115.31037       14.82116        0.67426
H        116.83429       11.99825        2.03275
H        117.30363       12.74341       -0.63834
H        118.04553       13.56450        0.76757
N        116.61232       15.21950       -1.12095
C        115.89760       16.40443       -1.59584
C        114.43712       16.09664       -1.92039
O        114.00464       14.96351       -1.76828
C        116.59484       16.96632       -2.86304
C        118.04604       17.31450       -2.63281
C        118.40898       18.30495       -1.70453
C        119.05162       16.65391       -3.35896
C        119.75585       18.62461       -1.50467
C        120.39629       16.97456       -3.15729
C        120.75430       17.95909       -2.23136
O        122.05664       18.25713       -2.05061
H        117.42496       14.88826       -1.66358
H        115.91975       17.17717       -0.79666
H        116.08998       17.88700       -3.22017
H        116.50991       16.20773       -3.67171
H        117.65146       18.83183       -1.13822
H        118.79635       15.88900       -4.08192
H        120.02188       19.39011       -0.78671
H        121.16044       16.45689       -3.72336
H        122.34778       18.93257       -1.42174
N        113.61847       17.09545       -2.36513
C        112.18967       16.97741       -2.64581
C        111.89635       15.98067       -3.76522
O        112.11612       14.79324       -3.58286
C        111.38681       16.64213       -1.34845
C        109.85049       16.60418       -1.57484
C        111.73876       17.61308       -0.20495
C        109.22421       17.90714       -2.07969
H        114.02004       18.03765       -2.47979
H        111.85921       17.98345       -2.98183
H        111.67822       15.62831       -0.99781
H        109.36064       16.34965       -0.61100
H        109.60464       15.79930       -2.29917
H        112.81872       17.55016        0.04464
H        111.50837       18.66294       -0.47697
H        111.17503       17.34308        0.71378
H        109.61598       18.17980       -3.07967
H        108.12671       17.76807       -2.17490
H        109.40152       18.74001       -1.36975
N        111.33226       16.39926       -4.93680
C        110.86654       15.48308       -5.97757
C        111.53497       15.70528       -7.33085
O        111.15498       15.02053       -8.27214
C        109.34622       15.65619       -6.12119
O        108.72193       15.39127       -4.89533
H        111.15669       17.40667       -5.07250
H        111.05642       14.42775       -5.69151
H        108.95908       14.94633       -6.88617
H        109.12738       16.70188       -6.43798
H        107.75759       15.58312       -5.02894
N        112.52366       16.62534       -7.52616
C        113.10389       16.88199       -8.84452
C        113.78775       15.64276       -9.41433
O        114.42471       14.94404       -8.63790
C        114.14417       18.00388       -8.76250
H        112.85815       17.18281       -6.72646
H        112.28469       17.24085       -9.49070
H        114.98584       17.71083       -8.09818
H        114.54933       18.22115       -9.77470
H        113.67785       18.93009       -8.36631
N        113.82017       15.32084      -10.74670
C        113.19552       16.04937      -11.85023
C        114.28203       16.66979      -12.71767
O        115.24263       15.97359      -13.01630
C        112.34071       15.09570      -12.68428
H        114.38305       14.49541      -11.01053
H        112.52032       16.82039      -11.47732
H        112.95989       14.28008      -13.11481
H        111.54337       14.65125      -12.05236
H        111.85876       15.65424      -13.51668
N        114.26502       17.96695      -13.14935
C        113.13970       18.89196      -13.05296
C        113.43151       19.94318      -12.00828
O        112.66228       20.05738      -11.06311
C        112.85229       19.51416      -14.43678
C        112.47043       18.43882      -15.46940
C        112.18970       19.04686      -16.81356
O        111.19249       19.94035      -16.95853
O        112.85386       18.72203      -17.78516
H        115.10566       18.31284      -13.63996
H        112.20297       18.38176      -12.76105
H        113.74731       20.06760      -14.79749
H        112.01069       20.23598      -14.34125
H        111.56227       17.89631      -15.12889
H        113.29990       17.70479      -15.56916
N        114.53563       20.73345      -12.08729
C        114.84378       21.70982      -11.06507
H        115.79322       22.23020      -11.30971
H        114.02806       22.46054      -10.99673
H        114.96044       21.20217      -10.08279
H        115.18570       20.63019      -12.88036
Ca       112.86797       11.72538       -2.64462
O        111.81341       11.95710       -5.44683
H        111.61306       11.00833       -5.24918
H        112.36860       11.93249       -6.26604
O        115.97954       11.39351       -2.92258
H        116.05629       11.22975       -3.89605
H        116.47468       10.64597       -2.50321
O        114.76855       13.78552       -4.60032
H        115.58687       13.93051       -4.06216
H        114.69789       14.59340       -5.16826

Ca 1.0



