%chk=apoCaM-CA-Ng.loop1.water3.frame1091.chk
%nprocshared=20
%mem=10GB
%nosave
#b3lyp/svp scf=(tight,noincore,xqc) Test 
#IOP(5/87=12) Density=Current Pop=(MK,readradii) iop(6/33=2) iop(6/42=6)

apoCaM-CA-Ng.loop1.water3.frame1091 

   0  1 
C         52.63351       62.67534       43.77301
C         51.99264       63.63002       44.73667
O         50.81820       63.92829       44.57261
H         53.69606       62.48659       44.03377
H         52.08610       61.71057       43.78160
H         52.59654       63.10670       42.74960
N         52.71866       64.18176       45.75023
C         52.18111       65.17342       46.67294
C         52.85718       66.49112       46.36944
O         53.51986       67.07500       47.21657
C         52.37741       64.71237       48.12978
C         51.65381       63.42422       48.40388
O         52.34130       62.33502       48.79697
O         50.44076       63.36058       48.28101
H         53.71655       63.93446       45.84058
H         51.09542       65.33294       46.50404
H         51.98580       65.48852       48.82299
H         53.46253       64.57575       48.33279
N         52.72982       66.99768       45.11326
C         53.36858       68.22473       44.66046
C         52.83896       69.42010       45.44027
O         53.65838       70.11078       46.02903
C         53.24982       68.41013       43.12485
C         53.83225       67.19356       42.37414
C         53.80042       67.37114       40.85536
C         54.27975       66.08384       40.16558
N         54.27940       66.23063       38.71203
H         52.15996       66.45953       44.44583
H         54.46302       68.13506       44.85138
H         53.82395       69.31909       42.83967
H         52.20296       68.56223       42.79932
H         53.24185       66.28612       42.61300
H         54.88252       67.02069       42.69675
H         54.45401       68.22428       40.57118
H         52.76033       67.58747       40.52684
H         53.60363       65.24408       40.44645
H         55.30788       65.83125       40.50836
H         53.31787       66.46371       38.37312
H         54.94868       66.98286       38.43003
H         54.58127       65.32767       38.27933
N         51.51230       69.72590       45.58503
C         50.38468       68.98159       45.02440
C         49.68125       68.18403       46.10992
O         50.08395       68.24704       47.26248
C         49.44148       69.92883       44.25561
C         48.94418       71.06510       45.10124
O         48.26587       70.82630       46.23906
O         49.17210       72.21445       44.76270
H         51.28471       70.51790       46.20734
H         50.72132       68.22187       44.30573
H         48.57064       69.36502       43.86049
H         49.99211       70.34617       43.38346
N         48.68324       67.31684       45.77450
C         48.09523       66.36514       46.70299
C         47.13331       66.97433       47.74386
O         47.75347       67.98445       48.46863
H         48.41297       67.23552       44.78254
H         48.90324       65.79655       47.20994
H         47.50223       65.63618       46.10825
N         46.63850       65.90438       48.63154
C         45.55323       66.28403       49.58468
C         44.54630       65.12245       49.73785
O         44.84674       64.02507       49.28580
C         46.17316       66.53738       50.98936
C         47.00652       67.77531       51.10941
O         48.31251       67.68345       51.42490
O         46.49317       68.87431       50.97831
H         46.27138       65.19394       47.95917
H         44.99135       67.15885       49.19217
H         46.78578       65.65061       51.26287
H         45.40378       66.63464       51.76844
N         43.33555       65.22103       50.37018
C         42.71959       66.40505       50.95144
C         42.29849       67.41192       49.91693
O         41.52630       67.05220       49.03863
H         42.78056       64.35289       50.44333
H         43.34173       66.85308       51.74072
H         41.77866       66.08718       51.45236
N         42.73140       68.70621       49.97752
C         42.24312       69.73854       49.07012
C         43.28971       69.97913       47.95938
O         44.29836       70.85296       48.37636
C         41.81559       71.00333       49.86931
C         41.31227       72.14025       48.97141
O         42.89154       71.46814       50.64463
H         43.42386       68.96586       50.69670
H         41.33059       69.35641       48.56447
H         40.98477       70.69054       50.54563
H         42.50682       71.96343       51.41495
H         40.98207       72.99611       49.59811
H         42.12201       72.50528       48.30548
H         40.45492       71.79971       48.35503
N         42.67153       70.43024       46.70150
C         43.55815       70.30250       45.52915
C         44.48009       71.50362       45.47799
O         45.68337       71.35977       45.62785
C         44.29273       68.91374       45.38876
C         43.29362       67.72814       45.49551
C         45.04722       68.85682       44.03702
C         43.94447       66.34670       45.36443
H         41.82568       69.84639       46.50597
H         42.91792       70.38069       44.62030
H         45.03675       68.80362       46.20085
H         42.50362       67.82370       44.71966
H         42.80786       67.75019       46.49237
H         45.64503       67.92928       43.94414
H         44.32976       68.91440       43.19068
H         45.77510       69.68236       43.92423
H         44.74529       66.21980       46.12187
H         43.17733       65.56016       45.52286
H         44.36466       66.18904       44.35041
N         43.96269       72.73171       45.19563
C         44.79757       73.90502       44.95181
C         44.44909       75.10273       45.82793
O         45.16619       76.09068       45.75006
C         44.70773       74.28184       43.44633
C         43.29386       74.69267       43.00334
O         45.11364       73.19130       42.65872
H         42.94443       72.80252       45.05075
H         45.86187       73.66389       45.16703
H         45.37300       75.15241       43.24109
H         46.10486       73.15880       42.69550
H         42.57003       73.85981       43.12166
H         42.93428       75.56766       43.58388
H         43.30514       74.97000       41.92803
N         43.34678       75.12965       46.63216
C         42.94477       76.33490       47.35137
C         43.80869       76.53647       48.58486
O         43.73551       75.72504       49.49546
C         41.43788       76.25649       47.71280
C         40.95624       77.48875       48.48183
O         40.67954       76.16324       46.53172
H         42.71962       74.31550       46.65214
H         43.04977       77.20567       46.66466
H         41.24418       75.37050       48.36295
H         40.62237       75.20371       46.28575
H         39.86824       77.39849       48.68595
H         41.47787       77.57091       49.45710
H         41.13393       78.41165       47.88949
N         44.63741       77.61843       48.68665
C         45.43914       77.92820       49.86862
C         46.40026       76.79550       50.18621
O         46.29689       76.17702       51.23738
C         44.54689       78.33387       51.06713
C         43.71382       79.58629       50.72746
C         42.88255       80.13231       51.89960
C         43.75053       80.68759       53.04310
N         42.92302       81.32360       54.06789
H         44.70184       78.26932       47.88961
H         46.06788       78.82178       49.65282
H         45.22371       78.56782       51.91505
H         43.87565       77.50349       51.37422
H         43.01770       79.33401       49.90072
H         44.38330       80.39893       50.36914
H         42.19389       79.34761       52.28126
H         42.26793       80.96934       51.50150
H         44.45728       81.44433       52.63458
H         44.34113       79.87235       53.51168
H         42.39104       82.12371       53.65383
H         42.25659       80.62961       54.47702
H         43.54121       81.69117       54.82716
N         47.39889       76.50673       49.30530
C         48.38662       75.44994       49.51089
C         48.35329       74.44633       48.36300
O         48.06853       73.29313       48.65285
C         49.80444       76.01394       49.76000
C         49.87094       76.82793       51.06137
C         51.26114       77.34299       51.30313
O         51.94120       76.96341       52.40189
O         51.77811       78.11454       50.51061
H         47.45622       77.09275       48.46414
H         48.13722       74.87775       50.43405
H         50.15600       76.64585       48.92656
H         50.51075       75.15926       49.85714
H         49.57216       76.17693       51.91259
H         49.17376       77.69135       51.01578
N         48.61763       74.71888       47.04823
C         48.99239       75.98401       46.44903
H         49.98240       75.87212       45.95929
H         48.24381       76.25510       45.67597
H         49.06520       76.82308       47.14789
H         48.54659       73.93320       46.38864
Ca        46.18214       69.60456       48.30576
O         49.80562       70.37311       49.43116
H         50.49865       69.67053       49.51129
H         49.02173       70.00039       49.90660
O         45.41380       73.23851       49.54841
H         45.21652       73.59138       48.64442
H         44.56963       73.34665       50.05153
O         47.53156       71.85230       51.37966
H         46.86245       72.42084       51.83686
H         48.37469       72.36881       51.43272

Ca 1.0



