%chk=apoCaM-CA-Ng.loop2.water4.frame1073.chk
%nprocshared=20
%mem=10GB
%nosave
#b3lyp/svp scf=(tight,noincore,xqc) Test 
#IOP(5/87=12) Density=Current Pop=(MK,readradii) iop(6/33=2) iop(6/42=6)

apoCaM-CA-Ng.loop2.water4.frame1073 

   -2  1 
C         30.90835       48.51403       16.93336
C         29.84285       49.55892       16.74446
O         29.81133       50.16954       15.68601
H         31.55539       48.77073       17.79668
H         30.42982       47.52535       17.10057
H         31.54674       48.43784       16.02702
N         28.89310       49.82161       17.68801
C         28.80562       49.16870       18.99087
C         28.78474       50.22570       20.09493
O         29.66350       51.07625       20.07088
C         27.63308       48.16027       18.96047
C         26.31301       48.74803       18.51349
O         25.79605       48.35494       17.47966
O         25.68607       49.69155       19.23834
H         28.16515       50.51032       17.44992
H         29.71602       48.56668       19.18702
H         27.52543       47.65144       19.94065
H         27.91179       47.37463       18.22275
N         27.85066       50.24161       21.09852
C         27.78774       51.25835       22.14475
C         27.55202       52.61868       21.52267
O         28.37898       53.51149       21.65211
C         29.02649       51.20979       23.05171
H         27.13341       49.50835       21.14415
H         26.91727       51.03929       22.80393
H         28.90951       51.94324       23.87904
H         29.12159       50.19794       23.49938
H         29.95883       51.44979       22.50338
N         26.40326       52.83567       20.82655
C         26.10539       54.08690       20.14224
C         24.64467       54.10868       19.70879
O         24.20641       53.20330       19.01643
C         27.07163       54.31469       18.95145
C         27.07646       53.24277       17.89319
O         27.70845       53.42817       16.86552
O         26.32413       52.13410       17.99997
H         25.70788       52.07310       20.79568
H         26.24854       54.93054       20.85187
H         28.11342       54.42520       19.31492
H         26.78306       55.27346       18.46691
N         23.80579       55.10174       20.11926
C         22.38984       55.08228       19.79248
C         22.09507       55.17802       18.30612
O         20.96190       54.89816       17.94072
H         24.16173       55.85913       20.72127
H         21.85634       55.90557       20.31434
H         21.97455       54.12355       20.17545
N         23.02116       55.59693       17.39014
C         22.71337       55.65921       15.96288
C         22.80760       54.23504       15.35754
O         24.14769       53.91201       15.10462
C         23.66648       56.63787       15.22850
C         23.48136       58.06117       15.68827
N         24.50435       58.75221       16.24300
O         22.39623       58.60336       15.54061
H         23.94207       55.92570       17.71722
H         21.67532       56.04197       15.83661
H         23.46719       56.61394       14.13664
H         24.72135       56.32118       15.38660
H         25.42981       58.31861       16.37335
H         24.37075       59.72973       16.54178
N         21.98010       54.05548       14.14744
C         22.52775       53.00271       13.27711
C         21.57983       52.60524       12.17537
O         20.45013       53.07215       12.15919
H         21.94208       54.94092       13.59109
H         22.77287       52.09485       13.86960
H         23.45530       53.39720       12.80233
N         21.97043       51.77245       11.16535
C         23.32386       51.23268       11.02490
C         24.11093       52.13142       10.08131
O         23.51194       52.97790        9.43007
C         23.23513       49.74613       10.59292
C         24.58526       49.05617       10.39074
O         22.52698       49.03077       11.57540
H         21.30294       51.60676       10.39535
H         23.85546       51.27468       11.99724
H         22.70356       49.69218        9.61178
H         21.61423       48.86009       11.22444
H         25.18695       49.09155       11.32369
H         24.41931       47.99271       10.11609
H         25.14831       49.52004        9.55582
N         25.47452       52.06654       10.02950
C         26.29426       52.99090        9.25197
C         27.02859       52.18694        8.18532
O         27.81081       51.32516        8.56354
C         27.28893       53.73256       10.19594
C         26.60475       54.34864       11.44719
C         28.09885       54.79400        9.43182
C         25.49097       55.35158       11.15564
H         25.96525       51.36410       10.60265
H         25.65482       53.76215        8.78523
H         28.01619       52.99033       10.59508
H         27.38230       54.85101       12.06373
H         26.17232       53.53627       12.07016
H         27.43568       55.56577        8.98830
H         28.82070       55.29385       10.11138
H         28.68491       54.31817        8.61895
H         25.86784       56.18257       10.54238
H         24.64779       54.87939       10.62183
H         25.10184       55.75562       12.11371
N         26.81854       52.32684        6.84041
C         25.86979       53.25872        6.23214
C         26.40036       54.69120        6.19323
O         27.58645       54.91256        6.38275
C         25.42958       52.79165        4.81963
C         26.52853       52.72733        3.78454
O         26.46555       53.42879        2.78813
O         27.54852       51.85657        3.90774
H         27.30317       51.64877        6.23821
H         24.93543       53.22816        6.83130
H         24.64153       53.48667        4.45479
H         24.96582       51.78432        4.89833
N         25.53560       55.71785        5.94594
C         25.91510       57.13161        5.83941
C         24.64166       57.96368        5.66456
O         23.87958       57.61515        4.77156
C         26.80556       57.37121        4.59152
C         27.25120       58.81675        4.52447
C         26.66287       59.70852        3.60937
C         28.24433       59.29089        5.40030
C         27.05118       61.05253        3.58428
C         28.63936       60.63242        5.36132
C         28.03932       61.51354        4.45802
H         24.54008       55.46789        5.84483
H         26.47605       57.43523        6.74571
H         26.21274       57.10708        3.68731
H         27.70855       56.72557        4.57788
H         25.88780       59.37143        2.93276
H         28.71231       58.62144        6.11104
H         26.58268       61.73893        2.89037
H         29.40633       60.99082        6.03591
H         28.33867       62.55390        4.43625
N         24.33106       59.08928        6.39054
C         25.17547       59.78328        7.36230
C         25.46445       59.04561        8.65316
O         25.00647       57.92588        8.82841
C         24.36774       61.04844        7.69263
C         23.63401       61.30898        6.40061
C         23.17850       59.90347        6.04965
H         26.11857       60.06426        6.85289
H         23.58320       60.79970        8.44553
H         24.97098       61.89931        8.07198
H         22.81041       62.05087        6.47066
H         24.37439       61.64931        5.64107
H         22.32549       59.59195        6.69325
H         22.88749       59.85927        4.97752
N         26.21990       59.65698        9.61739
C         26.52043       59.06680       10.92004
C         27.60522       59.86574       11.64659
O         27.36566       60.35086       12.74154
C         25.22086       58.85670       11.76724
C         24.45444       60.08118       12.32927
C         24.01841       61.09734       11.31483
O         24.92750       61.88429       10.71177
O         22.83065       61.28368       11.10426
H         26.62323       60.58100        9.39623
H         26.96379       58.06652       10.74722
H         25.49147       58.23461       12.64829
H         24.50024       58.25808       11.17544
H         25.03667       60.61031       13.10778
H         23.55238       59.67699       12.84040
N         28.85693       60.04599       11.13038
C         29.34197       59.49836        9.87822
H         30.22480       58.85740       10.08311
H         28.59759       58.87842        9.34593
H         29.65060       60.32884        9.20998
H         29.53117       60.60457       11.67687
Ca        24.70765       52.23161       16.48253
O         21.45779       51.86538       17.43818
H         21.10122       52.15882       18.31387
H         20.65678       51.76569       16.86478
O         22.58065       49.25851       18.72486
H         22.25348       48.52461       18.14626
H         21.84015       49.42181       19.36168
O         25.64399       50.56880       14.10477
H         25.67409       49.58199       14.03223
H         26.36795       50.79242       14.74246
O         22.31792       49.82886       15.29233
H         22.63430       49.07645       14.73245
H         21.53717       50.19118       14.80246

Ca 1.0



