%chk=apoCaM-CA-Ng.loop2.water4.frame390.chk
%nprocshared=20
%mem=10GB
%nosave
#b3lyp/svp scf=(tight,noincore,xqc) Test 
#IOP(5/87=12) Density=Current Pop=(MK,readradii) iop(6/33=2) iop(6/42=6)

apoCaM-CA-Ng.loop2.water4.frame390 

   -2  1 
C         11.40925       59.73636       26.13856
C         10.46667       58.63806       25.74736
O          9.26538       58.79225       25.91704
H         11.98834       60.06774       25.25155
H         10.85253       60.60611       26.54950
H         12.10966       59.36309       26.91511
N         10.94783       57.49028       25.19436
C         10.08166       56.37987       24.82087
C          9.51065       55.74181       26.07001
O         10.28946       55.26351       26.88478
C         10.87351       55.32345       24.02088
C          9.98589       54.20289       23.54998
O          9.04663       54.43403       22.80493
O         10.22515       52.93838       23.94623
H         11.96319       57.41731       25.02254
H          9.27576       56.76706       24.15768
H         11.69359       54.91038       24.64985
H         11.33253       55.80198       23.12945
N          8.16485       55.68446       26.28253
C          7.58959       55.03343       27.45247
C          6.80779       56.00358       28.30213
O          6.40024       57.05461       27.82453
C          6.66605       53.89518       27.01084
H          7.52750       56.10321       25.58727
H          8.38968       54.59809       28.08811
H          5.83105       54.29526       26.39384
H          7.23122       53.15558       26.40634
H          6.23377       53.37610       27.89329
N          6.54481       55.68286       29.59933
C          5.69095       56.48899       30.46471
C          4.25336       56.40473       29.96938
O          3.99846       55.72192       28.98559
C          5.77046       55.96235       31.91853
C          7.16810       56.03565       32.46515
O          7.79982       54.91429       32.86153
O          7.73032       57.11314       32.56746
H          6.95562       54.81431       29.97742
H          6.03815       57.54686       30.45873
H          5.41608       54.90895       31.95153
H          5.12545       56.56587       32.59033
N          3.24656       57.03072       30.63885
C          1.85071       56.86794       30.27131
C          1.11167       58.16682       30.08963
O         -0.08888       58.08390       29.86711
H          3.46228       57.57859       31.48435
H          1.35139       56.32147       31.09965
H          1.72774       56.26090       29.34878
N          1.70890       59.39331       30.20057
C          0.93177       60.62923       30.17931
C          1.28643       61.54467       29.02066
O          0.60897       62.55281       28.87071
C          1.10023       61.37083       31.51989
C          0.90170       60.45848       32.70913
N         -0.25188       59.77369       32.88788
O          1.81034       60.32609       33.51565
H          2.72337       59.46420       30.36875
H         -0.14802       60.39367       30.06068
H          0.37216       62.20920       31.56984
H          2.12634       61.79836       31.57412
H         -1.02884       59.85608       32.21752
H         -0.36094       59.14262       33.69609
N          2.29846       61.27208       28.14223
C          2.56021       62.11949       26.98854
C          2.97982       63.52730       27.35700
O          3.22337       63.81840       28.52072
H          2.87078       60.42312       28.25098
H          1.62946       62.16584       26.38281
H          3.35813       61.67293       26.35623
N          3.04191       64.47445       26.37857
C          3.38855       65.87098       26.64026
C          4.84634       66.03000       27.07195
O          5.14569       66.97956       27.78192
C          3.04568       66.79371       25.43922
C          3.82142       66.46885       24.15374
O          1.66025       66.78597       25.19012
H          2.77309       64.18656       25.42706
H          2.74422       66.21724       27.48136
H          3.31421       67.83367       25.72701
H          1.42171       65.91905       24.76981
H          3.59729       65.45086       23.77625
H          3.55804       67.19947       23.36078
H          4.90192       66.53646       24.34139
N          5.79113       65.11108       26.71500
C          7.16861       65.09801       27.20409
C          7.27835       63.93457       28.15516
O          6.93273       62.81632       27.79356
C          8.21577       64.98391       26.04003
C          8.62556       66.36998       25.47959
C          9.52823       64.30190       26.50165
C          7.50516       67.17755       24.85299
H          5.50317       64.31686       26.12411
H          7.41080       66.01057       27.79222
H          7.80531       64.33448       25.23517
H          9.39894       66.22562       24.69336
H          9.07997       66.97426       26.29682
H         10.25267       64.23768       25.66317
H          9.99239       64.85891       27.34375
H          9.34622       63.25467       26.82263
H          6.72432       67.41539       25.60017
H          7.91767       68.13874       24.47971
H          7.08585       66.61762       23.99417
N          7.78268       64.13962       29.40259
C          7.90220       63.07084       30.37171
C          7.83818       63.65833       31.77842
O          8.59424       63.26296       32.65003
C          9.18458       62.25899       30.04695
C          9.30114       60.98094       30.81315
O          8.46154       60.68147       31.64791
O         10.30492       60.11661       30.56781
H          8.07898       65.09023       29.67534
H          6.99857       62.42808       30.27282
H         10.08415       62.89162       30.22552
H          9.17250       61.97879       28.97377
N          6.94494       64.65709       32.04002
C          6.80037       65.33744       33.32497
C          8.12008       65.93550       33.78535
O          8.72356       66.66947       33.01222
C          5.77798       66.49143       33.19388
C          4.40626       65.99056       32.82090
C          3.68588       65.17981       33.71327
C          3.83503       66.32740       31.58099
C          2.41556       64.71095       33.36972
C          2.56652       65.85075       31.23886
C          1.85717       65.04425       32.13283
H          6.35006       64.97769       31.26087
H          6.42092       64.61451       34.07168
H          6.14998       67.20460       32.42302
H          5.69828       67.05020       34.15254
H          4.10628       64.91648       34.67605
H          4.37323       66.94926       30.87584
H          1.86507       64.08921       34.06346
H          2.13389       66.10655       30.28038
H          0.87447       64.67879       31.86777
N          8.62095       65.72437       35.04365
C          9.82385       66.37072       35.53424
C         11.09437       65.68634       35.05571
O         12.16017       66.23422       35.29894
C          9.66078       66.29647       37.05608
C          8.97930       64.95241       37.22707
C          7.95661       64.97285       36.09225
H          9.85510       67.44130       35.23005
H         10.58950       66.45103       37.64603
H          8.91962       67.06982       37.36464
H          9.73684       64.16722       37.00527
H          8.54578       64.75285       38.23017
H          7.71025       63.92944       35.80167
H          7.03535       65.52581       36.38247
N         11.07941       64.48686       34.39961
C         12.30548       63.86127       33.92205
C         12.92280       64.62437       32.75681
O         14.08377       64.37243       32.46158
C         12.08019       62.40671       33.46050
C         11.72551       61.42817       34.60088
C         11.80752       60.01669       34.08132
O         10.80629       59.12732       34.20048
O         12.81740       59.65890       33.49465
H         10.19097       63.99051       34.27476
H         13.03652       63.84520       34.76165
H         13.04774       62.06485       33.02947
H         11.31659       62.36560       32.65144
H         10.72305       61.64671       35.02893
H         12.48906       61.52722       35.39965
N         12.20396       65.50698       32.00420
C         12.75057       66.18901       30.84666
H         13.81953       65.94317       30.67041
H         12.17723       65.89228       29.94274
H         12.66307       67.28559       30.98655
H         11.21355       65.68401       32.22299
Ca        10.17925       58.54866       32.14857
O          9.99072       55.57756       30.49274
H         10.64993       54.84112       30.44416
H          9.88977       55.87472       29.55508
O          8.90731       58.26023       29.17212
H          8.07123       58.78112       29.07815
H          9.08243       57.89457       28.27107
O         11.79902       56.24604       33.20016
H         11.08878       55.88727       33.78961
H         12.22723       55.44457       32.80772
O         12.54860       57.78424       30.03461
H         13.41691       58.22394       30.21711
H         12.77050       57.04014       29.42017

Ca 1.0



