%chk=apoCaM-CA-Ng.loop3.water6.frame1155.chk
%nprocshared=20
%mem=10GB
%nosave
#b3lyp/svp scf=(tight,noincore,xqc) Test 
#IOP(5/87=12) Density=Current Pop=(MK,readradii) iop(6/33=2) iop(6/42=6)

apoCaM-CA-Ng.loop3.water6.frame1155 

   0  1 
C         70.00596       52.11879       73.89771
C         68.88637       51.18202       73.57145
O         69.07683       50.30733       72.74177
H         70.91012       51.86715       73.30104
H         69.69741       53.15651       73.65352
H         70.25360       52.04638       74.97614
N         67.67881       51.30875       74.19150
C         66.53403       50.46273       73.87354
C         65.37531       51.30932       73.37301
O         64.25439       51.14338       73.83362
C         66.17539       49.55361       75.07361
C         65.76784       50.25747       76.34594
O         65.70163       51.47449       76.41484
O         65.46030       49.52030       77.42968
H         67.56966       52.04787       74.90097
H         66.79086       49.77835       73.03549
H         67.05866       48.91797       75.30038
H         65.34273       48.88560       74.77674
N         65.58926       52.23027       72.38718
C         64.54421       53.02346       71.74345
C         63.62954       52.07763       70.99461
O         62.42932       52.04670       71.23198
C         63.78706       53.93183       72.74216
C         64.73174       54.83990       73.54027
C         63.93099       55.75894       74.47569
C         64.81763       56.68019       75.32991
N         65.63156       55.93467       76.29310
H         66.55087       52.35774       72.03711
H         65.02856       53.68243       70.98839
H         63.20086       53.31937       73.45951
H         63.06810       54.55815       72.16907
H         65.33509       55.46086       72.84286
H         65.41375       54.19691       74.13337
H         63.28719       55.15254       75.15007
H         63.27020       56.39918       73.85075
H         64.14956       57.36921       75.89288
H         65.47165       57.29726       74.67499
H         66.14578       56.61382       76.89910
H         65.01874       55.34284       76.90031
H         66.33580       55.33684       75.80660
N         64.19140       51.20189       70.11720
C         63.47149       50.10108       69.49388
C         63.90916       48.80157       70.14817
O         64.90163       48.79196       70.86301
C         63.67306       50.11393       67.96319
C         65.12826       50.16570       67.56193
O         65.54901       51.12189       66.92926
O         65.98242       49.18869       67.91905
H         65.20997       51.25263       69.97378
H         62.38395       50.19213       69.70558
H         63.17270       51.02201       67.55993
H         63.18822       49.22579       67.50558
N         63.13794       47.68213       70.04987
C         63.44328       46.46110       70.78241
C         63.52309       46.76077       72.27410
O         62.54530       47.27000       72.80285
H         62.27353       47.71433       69.48853
H         64.37635       46.03210       70.37618
H         62.63766       45.71647       70.60858
N         64.64280       46.54972       73.03234
C         65.85407       45.88382       72.56349
C         67.00284       46.12626       73.54231
O         66.84110       45.80790       74.71288
C         65.57986       44.36596       72.46738
C         66.72862       43.61658       71.84765
N         67.04784       43.80933       70.54710
O         67.36143       42.81349       72.51665
H         64.61311       46.87359       74.01121
H         66.13229       46.29567       71.57769
H         64.67584       44.15719       71.85978
H         65.38096       43.97937       73.49295
H         66.50520       44.46393       69.96471
H         67.82451       43.28821       70.11504
N         68.20327       46.66641       73.17664
C         68.54955       47.05070       71.81103
C         69.95940       47.59795       71.68934
O         70.67157       47.66595       72.68237
H         68.90060       46.78420       73.92755
H         67.84486       47.83159       71.46263
H         68.47306       46.16127       71.15014
N         70.43389       48.01146       70.47496
C         71.78521       48.53935       70.29890
C         71.75196       49.96490       69.75503
O         70.72093       50.41500       69.28017
C         72.56766       47.59950       69.35365
C         74.06033       47.81862       69.38557
C         74.75640       48.27301       68.25337
C         74.77508       47.53538       70.56234
C         76.14501       48.44690       68.30390
C         76.16014       47.70299       70.60837
C         76.85092       48.16109       69.47869
O         78.18883       48.32540       69.51030
H         69.82241       47.93516       69.64833
H         72.29191       48.56670       71.28612
H         72.15788       47.70922       68.32559
H         72.40219       46.54270       69.65846
H         74.22795       48.49612       67.33535
H         74.25970       47.17047       71.44226
H         76.67395       48.80250       67.42884
H         76.69427       47.47172       71.52159
H         78.71176       48.12940       70.30130
N         72.86568       50.74353       69.81426
C         72.92755       52.11673       69.30874
C         72.66734       52.16030       67.80992
O         73.27179       51.38305       67.08650
C         74.29456       52.78341       69.66844
C         75.51788       52.05433       69.04307
C         74.26904       54.27654       69.27850
C         76.86120       52.57671       69.54936
H         73.69110       50.34335       70.27895
H         72.14694       52.71402       69.83241
H         74.38779       52.72915       70.77641
H         75.49971       52.13097       67.93620
H         75.49328       50.98226       69.31054
H         75.17261       54.80529       69.63974
H         74.20649       54.39835       68.17635
H         73.39340       54.78078       69.74007
H         77.02812       53.62938       69.24786
H         76.91149       52.49243       70.65594
H         77.67823       51.96488       69.11186
N         71.79216       53.06901       67.27717
C         71.54198       53.17183       65.83630
C         70.46152       54.19597       65.48359
O         70.02214       54.96034       66.32893
C         72.83626       53.56503       65.08092
O         73.28621       54.81733       65.52441
H         71.29926       53.70107       67.92439
H         71.18808       52.17997       65.48739
H         72.63385       53.60095       63.98726
H         73.64068       52.81947       65.23236
H         73.95860       55.12709       64.86341
N         70.02336       54.26703       64.19147
C         69.10657       55.26664       63.65374
C         69.71755       56.65425       63.75762
O         69.05997       57.59124       64.19059
C         67.70904       55.15885       64.28120
H         70.40005       53.58711       63.51420
H         68.99683       55.05427       62.56653
H         67.31072       54.13192       64.13966
H         67.73282       55.38584       65.36682
H         67.01413       55.87291       63.78934
N         71.02009       56.83037       63.39227
C         71.75250       58.08809       63.44631
C         71.62604       58.76951       64.79914
O         71.37433       59.96649       64.85651
C         71.33803       58.99732       62.28398
H         71.55775       56.00155       63.09464
H         72.82856       57.84521       63.29795
H         71.95946       59.91847       62.27646
H         71.49641       58.46633       61.32109
H         70.26771       59.28026       62.36567
N         71.76049       58.04846       65.94467
C         71.67910       58.65866       67.26233
C         72.99131       59.35674       67.55402
O         72.98529       60.52120       67.92770
C         71.34167       57.59551       68.33138
C         71.03336       58.20678       69.71394
C         69.84044       59.12865       69.67955
O         69.97535       60.42246       70.02890
O         68.74633       58.70950       69.33489
H         71.89774       57.02930       65.87664
H         70.83089       59.37868       67.27536
H         72.17344       56.86404       68.42005
H         70.43477       57.04029       68.00508
H         71.92161       58.75880       70.08736
H         70.81034       57.38647       70.42917
N         74.16958       58.70105       67.35023
C         75.45662       59.32118       67.57300
H         76.26742       58.62689       67.26215
H         75.54395       60.25084       66.97072
H         75.58105       59.55730       68.64976
H         74.15686       57.73538       66.98700
Ca        68.17737       49.46664       67.43800
O         67.73282       48.25236       64.79391
H         68.07750       47.32503       64.82832
H         67.90912       48.55093       63.86686
O         68.45097       46.52370       67.67706
H         69.23323       46.05547       68.06276
H         67.86218       46.70720       68.45212
O         68.79956       52.41752       68.04715
H         68.71960       53.11273       68.74735
H         68.50774       52.86547       67.21441
O         68.85069       51.19144       64.67039
H         68.15978       51.40005       63.99324
H         69.61870       50.85507       64.14349
O         70.87837       48.88859       66.09628
H         70.79943       48.69163       65.12928
H         71.81451       49.18763       66.21324
O         67.68938       50.54332       70.21612
H         68.55834       50.08165       70.26104
H         67.04931       49.82853       70.44132

Ca 1.0



