%chk=apoCaM-CA-Ng.loop3.water3.frame870.chk
%nprocshared=20
%mem=10GB
%nosave
#b3lyp/svp scf=(tight,noincore,xqc) Test 
#IOP(5/87=12) Density=Current Pop=(MK,readradii) iop(6/33=2) iop(6/42=6)

apoCaM-CA-Ng.loop3.water3.frame870 

   0  1 
C         62.47369       41.60323        1.79712
C         62.92191       42.98564        1.42663
O         63.49015       43.15271        0.35718
H         61.76298       41.23209        1.02813
H         63.34961       40.92444        1.84318
H         61.95915       41.59268        2.78094
N         62.67099       44.04083        2.25182
C         63.00319       45.41665        1.88822
C         64.51810       45.60542        1.80089
O         65.24827       44.74906        2.28182
C         62.32181       46.37312        2.90412
C         62.08453       47.79269        2.46975
O         61.42755       48.61542        3.30560
O         62.38238       48.19125        1.35804
H         62.16395       43.85979        3.13250
H         62.56022       45.58563        0.89430
H         62.87601       46.34558        3.86720
H         61.29624       45.99461        3.09945
N         65.06152       46.68581        1.16859
C         66.49904       46.91781        1.03737
C         66.92961       48.18345        1.78369
O         68.12295       48.36933        1.97458
C         66.82781       46.95361       -0.47046
C         68.31076       47.10711       -0.83305
C         68.47704       47.04028       -2.36002
C         69.94004       47.20723       -2.78580
N         70.06954       47.11579       -4.24091
H         64.43444       47.35891        0.71610
H         67.05570       46.07633        1.50422
H         66.26300       47.78526       -0.94124
H         66.46377       45.99712       -0.90866
H         68.89655       46.28870       -0.36124
H         68.69017       48.08542       -0.46995
H         67.87140       47.84460       -2.83379
H         68.10533       46.05672       -2.72370
H         70.55917       46.41311       -2.31304
H         70.31443       48.19800       -2.44484
H         69.50288       47.86427       -4.70250
H         71.07318       47.23975       -4.50595
H         69.74677       46.17740       -4.57232
N         66.01714       49.08322        2.25567
C         66.34000       50.25247        3.06666
C         65.55251       50.16899        4.38575
O         66.18246       50.21438        5.43308
C         66.17563       51.54803        2.22870
C         64.82561       51.70939        1.60818
O         64.67651       51.66408        0.39875
O         63.77412       51.86789        2.40857
H         65.02630       48.95140        2.02843
H         67.41980       50.25481        3.33954
H         66.92430       51.50193        1.40668
H         66.41112       52.43847        2.85061
N         64.20477       49.91481        4.41351
C         63.46183       49.58313        5.62600
C         62.15425       50.33966        5.81911
O         61.41315       49.94690        6.70901
H         63.69639       49.80615        3.53001
H         64.08232       49.67960        6.54210
H         63.18276       48.51087        5.53195
N         61.79127       51.41566        5.06000
C         60.51737       52.12638        5.21484
C         59.78140       52.19648        3.84687
O         59.82045       50.96841        3.18783
C         60.82065       53.54408        5.74379
C         61.56450       53.50084        7.05570
N         60.99659       52.95418        8.15573
O         62.69149       53.96821        7.12549
H         62.45529       51.77934        4.37071
H         59.85749       51.59675        5.93536
H         59.89234       54.12630        5.90482
H         61.44034       54.07838        4.98834
H         60.04430       52.56306        8.11918
H         61.50913       52.92604        9.04944
N         58.39530       52.70556        3.90718
C         57.89295       52.96670        2.54405
C         57.39693       51.71442        1.85057
O         57.26651       50.67359        2.48157
H         58.41619       53.63287        4.38465
H         58.70244       53.43248        1.93656
H         57.05026       53.69161        2.57225
N         57.13365       51.74799        0.51275
C         56.75334       50.56724       -0.26955
C         57.83139       49.48945       -0.20778
O         58.83978       49.68862        0.45158
C         56.49819       50.97180       -1.74278
C         55.30078       51.87906       -1.88033
C         54.02195       51.41091       -1.53041
C         55.44068       53.18552       -2.37539
C         52.90391       52.23606       -1.66835
C         54.31937       54.01083       -2.51166
C         53.04663       53.53739       -2.15825
O         51.95645       54.31979       -2.28740
H         57.24640       52.65114        0.02556
H         55.82602       50.12860        0.15737
H         56.29105       50.08396       -2.37452
H         57.41806       51.45343       -2.14371
H         53.88790       50.40332       -1.15699
H         56.41492       53.56594       -2.65587
H         51.92516       51.86070       -1.39676
H         54.44044       55.01630       -2.89398
H         52.00961       55.22502       -2.62505
N         57.65149       48.29703       -0.85887
C         58.56770       47.15647       -0.80741
C         59.93422       47.51028       -1.39450
O         60.54979       48.46512       -0.94493
C         58.67737       46.58398        0.63942
C         59.51022       45.27445        0.69364
C         57.28852       46.35886        1.26853
C         58.92766       44.06993       -0.05533
H         56.78476       48.15960       -1.39826
H         58.11593       46.35550       -1.42964
H         59.20236       47.32837        1.27656
H         59.63489       44.97572        1.75638
H         60.50904       45.47525        0.27243
H         57.39455       45.95669        2.29865
H         56.72987       47.31490        1.34342
H         56.67967       45.65503        0.66454
H         59.61355       43.20462        0.06497
H         57.94157       43.77732        0.35839
H         58.82945       44.26924       -1.14019
N         60.50841       46.73774       -2.36143
C         61.82982       47.03580       -2.91736
C         61.89592       46.97076       -4.43736
O         62.93663       47.32319       -4.97544
C         62.85539       46.05894       -2.32783
O         62.51341       44.74135       -2.66440
H         60.03226       45.86449       -2.63000
H         62.13727       48.06263       -2.62851
H         62.85276       46.18581       -1.22630
H         63.87513       46.29100       -2.70729
H         63.07031       44.15417       -2.09174
N         60.88614       46.45569       -5.19591
C         61.04369       46.22208       -6.62561
C         60.99422       47.51470       -7.42884
O         60.31488       48.43698       -7.00018
C         59.93824       45.28755       -7.11788
H         60.03033       46.11150       -4.74337
H         62.00052       45.68051       -6.77374
H         60.09597       45.04474       -8.18249
H         59.96645       44.33613       -6.54508
H         58.93882       45.75616       -6.99144
N         61.59211       47.65410       -8.65219
C         62.49558       46.67462       -9.24768
C         62.57396       46.84647      -10.76174
O         62.88712       47.94400      -11.20233
C         63.89987       46.86328       -8.65961
H         61.44442       48.54408       -9.15462
H         62.15667       45.65529       -9.00628
H         64.59854       46.11639       -9.09377
H         64.28241       47.88293       -8.88379
H         63.89378       46.73437       -7.55903
N         62.36660       45.82408      -11.64899
C         62.04682       44.44588      -11.27823
C         60.59792       44.28611      -10.82829
O         60.24440       43.19219      -10.40783
C         62.30054       43.48440      -12.46291
C         63.77529       43.47159      -12.89973
C         63.99427       42.49844      -14.02182
O         63.41815       42.64733      -15.08786
O         64.83807       41.46127      -13.86044
H         62.50717       46.03821      -12.64903
H         62.73212       44.12252      -10.46377
H         61.65042       43.76941      -13.31972
H         62.03513       42.44872      -12.15156
H         64.40972       43.17794      -12.03487
H         64.09492       44.47787      -13.24132
N         59.68965       45.30109      -10.91070
C         58.30249       45.11963      -10.53449
H         57.84304       44.32260      -11.15687
H         58.21904       44.83467       -9.46650
H         57.73986       46.06356      -10.69306
H         59.96570       46.22409      -11.27261
Ca        61.65885       51.33687        1.93470
O         61.15927       51.14944       -1.98380
H         61.43002       50.68517       -2.81538
H         60.24735       51.48625       -2.17196
O         61.18049       53.59593       -0.16664
H         60.20704       53.44747       -0.06268
H         61.40562       54.26894        0.52365
O         64.02161       49.35616       -1.25641
H         63.95288       50.23742       -1.70118
H         64.36622       48.75546       -1.96293

Ca 1.0



