%chk=apoCaM-CA-Ng.loop4.water4.frame984.chk
%nprocshared=20
%mem=10GB
%nosave
#b3lyp/svp scf=(tight,noincore,xqc) Test 
#IOP(5/87=12) Density=Current Pop=(MK,readradii) iop(6/33=2) iop(6/42=6)

apoCaM-CA-Ng.loop4.water4.frame984 

   -3  1 
C         56.52781      111.69657       87.37239
C         56.35666      112.94267       88.18851
O         56.47863      114.03223       87.64873
H         57.37164      111.10227       87.78375
H         55.60031      111.08881       87.41456
H         56.75169      111.94326       86.31284
N         56.08600      112.84151       89.52256
C         55.97472      113.96146       90.46029
C         54.75570      114.84948       90.24499
O         54.57142      115.76168       91.03835
C         57.25744      114.81120       90.45250
C         58.48233      113.95746       90.54947
O         58.70843      113.27565       91.53638
O         59.32554      113.95890       89.50457
H         56.01155      111.89417       89.92477
H         55.86544      113.52414       91.47796
H         57.24924      115.55451       91.27857
H         57.31663      115.38346       89.50205
N         53.87949      114.66159       89.21692
C         52.67931      115.47397       89.03831
C         51.66214      114.95212       90.04771
O         51.30882      113.78733       89.91781
C         52.16657      115.32566       87.56375
C         53.27545      115.74070       86.55128
C         50.88934      116.14961       87.32097
C         52.93978      115.40132       85.09754
H         54.03429      113.88924       88.55752
H         52.93300      116.54164       89.19527
H         51.92801      114.25138       87.39676
H         54.21659      115.19829       86.76796
H         53.49004      116.82644       86.64391
H         50.09701      115.87724       88.04782
H         51.10779      117.23460       87.39937
H         50.47624      115.95870       86.31098
H         52.05197      115.95573       84.73685
H         53.79793      115.67727       84.44825
H         52.76272      114.30899       84.99461
N         51.17828      115.64932       91.12109
C         51.44873      117.04704       91.46911
C         51.09758      117.31710       92.93578
O         50.20887      116.67068       93.47439
C         50.62812      117.95948       90.53928
C         50.62657      119.40384       90.93739
O         49.45329      120.01314       91.18330
O         51.66708      120.02877       91.04020
H         50.56664      115.10762       91.75126
H         52.53470      117.25335       91.37439
H         49.57094      117.61450       90.54234
H         51.01891      117.88127       89.51283
N         51.80396      118.24415       93.65608
C         51.58065      118.47442       95.07852
C         51.28453      119.91146       95.47096
O         51.04894      120.11613       96.65355
H         52.56941      118.75918       93.19510
H         52.49929      118.16951       95.62514
H         50.74812      117.84569       95.45583
N         51.33623      120.96192       94.59705
C         51.17390      122.35285       95.03344
C         50.16927      123.16730       94.22098
O         49.90966      124.29590       94.61666
C         52.56248      123.03817       95.07253
C         53.41259      122.81742       93.84237
O         53.05409      123.19744       92.74347
O         54.59345      122.18130       93.95876
H         51.60595      120.78829       93.61988
H         50.78042      122.38890       96.07355
H         53.12372      122.59814       95.92446
H         52.45069      124.12527       95.27975
N         49.57088      122.70352       93.08685
C         48.64221      123.49803       92.28551
C         49.26911      124.72005       91.62117
O         48.55221      125.42691       90.92784
H         49.76666      121.74943       92.77439
H         47.78982      123.81816       92.92420
H         48.23569      122.85856       91.47193
N         50.58921      125.03320       91.78058
C         51.26991      126.18849       91.21154
C         51.40238      126.10098       89.69653
O         51.73719      127.09935       89.07634
C         50.66831      127.51501       91.73377
C         50.62041      127.51163       93.27745
C         50.14357      128.80119       93.89174
N         50.01250      128.88662       95.23645
O         49.87370      129.76746       93.19370
H         51.17188      124.43566       92.35917
H         52.32027      126.18071       91.58209
H         49.64611      127.67724       91.33270
H         51.31477      128.35319       91.39074
H         51.63338      127.29407       93.68169
H         49.92684      126.71253       93.61041
H         50.22871      128.07635       95.83693
H         49.68772      129.75801       95.68026
N         51.26619      124.90196       89.05172
C         51.47418      124.71768       87.61543
C         52.61773      123.74677       87.30824
O         52.91785      123.58489       86.13099
C         50.16318      124.20688       86.94410
C         49.66431      122.87441       87.54258
C         49.05314      125.26102       87.02489
H         51.02701      124.06892       89.60352
H         51.75496      125.68358       87.14145
H         50.36921      124.03713       85.86358
H         50.44803      122.09093       87.47659
H         49.36432      122.98982       88.60544
H         48.77448      122.51414       86.98498
H         48.78695      125.48148       88.07973
H         49.38520      126.19941       86.53229
H         48.14508      124.89843       86.49667
N         53.25535      123.02039       88.27401
C         54.21632      121.96187       87.97358
C         55.48318      122.07891       88.80855
O         55.44391      122.59315       89.91941
C         53.51916      120.62363       88.28296
C         54.40070      119.40825       88.14836
N         54.65574      118.63088       89.22796
O         54.88694      119.12319       87.06455
H         52.97661      123.12714       89.25992
H         54.49500      121.95901       86.89555
H         52.63610      120.50515       87.61731
H         53.15583      120.68185       89.32226
H         54.25404      118.85773       90.15039
H         55.25864      117.79979       89.14759
N         56.63562      121.51763       88.34527
C         57.86290      121.38824       89.12560
C         58.98256      120.89597       88.23231
O         58.79170      119.90085       87.54344
C         57.66861      120.37379       90.28491
C         58.93465      120.19516       91.10267
C         59.50114      121.28963       91.77815
C         59.56403      118.93879       91.19416
C         60.67769      121.13702       92.51746
C         60.73886      118.78877       91.94134
C         61.30214      119.88957       92.60036
O         62.43924      119.76165       93.31441
H         56.62278      121.13150       87.38729
H         58.14294      122.38050       89.53979
H         57.35645      119.39517       89.85558
H         56.85900      120.71236       90.96368
H         59.03527      122.26467       91.72888
H         59.15175      118.07481       90.68702
H         61.10515      121.99152       93.02632
H         61.21449      117.81903       92.00892
H         62.90866      118.91859       93.39148
N         60.19984      121.51262       88.23976
C         61.32052      121.04730       87.43854
C         62.38002      120.45512       88.35511
O         63.11611      121.22229       88.96088
C         61.86556      122.20560       86.57453
C         63.08763      121.79871       85.73429
C         63.51416      122.91254       84.82311
O         64.74237      123.45246       84.94049
O         62.75616      123.32067       83.95750
H         60.35497      122.30815       88.87925
H         60.97417      120.27557       86.73512
H         62.15123      123.06320       87.22547
H         61.04599      122.54239       85.90265
H         62.84710      120.91117       85.11439
H         63.93264      121.54094       86.40999
N         62.50745      119.11118       88.58551
C         61.57753      118.08039       88.11081
C         61.59823      117.86694       86.60646
O         62.47143      118.38892       85.92752
C         61.82926      116.75560       88.86616
C         63.16726      116.07659       88.51017
C         63.51809      115.03080       89.53155
O         63.75850      115.36853       90.67959
O         63.47136      113.72123       89.23298
H         63.24224      118.83040       89.25357
H         60.56285      118.41434       88.40565
H         61.00420      116.03312       88.67928
H         61.80634      117.00097       89.94598
H         64.00500      116.80311       88.49761
H         63.07815      115.63148       87.49523
N         60.62024      117.11636       86.02270
C         60.52713      116.87989       84.59592
H         59.56528      117.28827       84.21816
H         61.35471      117.35682       84.03069
H         60.54949      115.78730       84.40248
H         59.88255      116.70637       86.61535
Ca        61.35241      113.04100       89.36720
O         63.92979      111.86936       91.55640
H         64.55309      111.87077       90.78689
H         64.14201      112.70233       92.04791
O         62.94104      111.05901       87.64321
H         62.57033      110.16460       87.43723
H         62.34223      111.68980       87.16966
O         61.18613      114.17723       92.87894
H         61.97822      114.16144       92.28660
H         60.64707      114.94026       92.55137
O         60.63948      111.10500       92.93388
H         61.01910      110.39289       93.50742
H         60.08922      111.65120       93.54991

Ca 1.0



