%chk=apoCaM-CA-Ng.loop1.water3.frame1396.chk
%nprocshared=20
%mem=10GB
%nosave
#b3lyp/svp scf=(tight,noincore,xqc) Test 
#IOP(5/87=12) Density=Current Pop=(MK,readradii) iop(6/33=2) iop(6/42=6)

apoCaM-CA-Ng.loop1.water3.frame1396 

   0  1 
C         49.57334       97.31100       52.16794
C         48.38504       97.18782       51.26300
O         48.16838       96.12402       50.70035
H         50.24985       98.10555       51.79204
H         49.23172       97.57431       53.19173
H         50.13263       96.35217       52.21767
N         47.53746       98.24125       51.10684
C         46.33313       98.15469       50.29289
C         46.67672       98.08714       48.81750
O         47.17845       99.06201       48.27395
C         45.40784       99.36586       50.53604
C         44.90045       99.45723       51.95219
O         45.24385       98.54235       52.88100
O         44.15378      100.37096       52.26237
H         47.72847       99.10598       51.63683
H         45.76646       97.24422       50.59406
H         44.52581       99.28432       49.86750
H         45.94842      100.30504       50.28583
N         46.39001       96.96500       48.10192
C         46.61389       96.84236       46.66567
C         45.40762       97.19401       45.79615
O         45.66724       97.64052       44.68594
C         47.19833       95.46785       46.28589
C         48.41519       95.06837       47.14169
C         49.56171       96.09659       47.09166
C         50.68421       95.79036       48.09118
N         51.39744       94.55417       47.78140
H         46.08367       96.13637       48.62872
H         47.36919       97.60230       46.37437
H         47.48173       95.47714       45.20976
H         46.41351       94.69080       46.42451
H         48.77131       94.07702       46.79094
H         48.08041       94.95358       48.19344
H         49.18170       97.08953       47.39949
H         49.96092       96.17879       46.05735
H         50.25953       95.73392       49.11733
H         51.40544       96.63700       48.07093
H         51.82920       94.62209       46.83172
H         52.15439       94.42331       48.49054
H         50.75659       93.73142       47.83046
N         44.08446       97.08158       46.12778
C         43.48189       96.54070       47.34491
C         42.81544       97.65650       48.12325
O         42.86522       98.79694       47.68479
C         42.58454       95.34752       46.98974
C         41.56667       95.65864       45.94298
O         40.56587       96.52215       46.18559
O         41.66332       95.13013       44.85008
H         43.41466       97.43006       45.42253
H         44.19985       96.10851       48.02148
H         42.08621       94.93338       47.88751
H         43.25806       94.55557       46.59007
N         42.22631       97.41147       49.32961
C         41.70195       98.47975       50.16848
C         40.20840       98.41986       50.27292
O         39.59746       97.52143       49.72134
H         42.16670       96.44470       49.68212
H         41.94870       99.47662       49.74842
H         42.16290       98.41745       51.17710
N         39.55052       99.41023       50.93823
C         38.09699       99.49601       51.01792
C         37.63961       99.51617       52.47332
O         38.44918       99.79321       53.34558
C         37.64906      100.79133       50.30263
C         37.93375      100.73118       48.83012
O         37.31774       99.81047       48.06661
O         38.69764      101.53067       48.31422
H         40.10657      100.16460       51.36923
H         37.64023       98.62109       50.51833
H         38.17540      101.65851       50.75907
H         36.56674      100.97965       50.41134
N         36.34510       99.25937       52.83748
C         35.31603       98.79530       51.91961
C         35.57233       97.37518       51.46428
O         36.42360       96.70355       52.03268
H         36.08368       99.37018       53.82997
H         35.22835       99.47579       51.05677
H         34.32780       98.79591       52.42829
N         34.82743       96.84035       50.45596
C         34.92558       95.43884       50.03159
C         36.29118       95.08939       49.34473
O         37.27336       96.03016       49.63113
C         33.75295       95.08968       49.07346
C         32.37726       95.31880       49.71813
O         33.82506       93.73918       48.69288
H         34.12116       97.45332       50.02160
H         34.81450       94.81560       50.94802
H         33.82939       95.75595       48.17843
H         33.84231       93.70550       47.70143
H         32.26470       94.68252       50.62127
H         32.21645       96.37595       50.01024
H         31.57824       95.05379       48.99397
N         36.71308       93.71974       49.72241
C         38.10423       93.25543       49.48125
C         38.47410       93.24897       48.00672
O         38.45876       94.28758       47.36494
C         39.17142       93.95074       50.37820
C         38.76868       93.93880       51.87833
C         40.55961       93.31082       50.18184
C         38.62427       92.54648       52.50762
H         36.06643       93.03951       49.26395
H         38.11958       92.19573       49.81057
H         39.28827       95.00563       50.07614
H         37.80319       94.47127       52.00016
H         39.53174       94.50202       52.45768
H         40.88665       93.40476       49.12758
H         41.31298       93.82342       50.81684
H         40.54852       92.22987       50.42999
H         39.58182       91.98849       52.47198
H         38.33615       92.65480       53.57378
H         37.83246       91.95317       52.00707
N         38.83772       92.07225       47.41971
C         39.11947       91.90658       46.00215
C         38.10335       90.92412       45.46908
O         38.44911       89.88225       44.93034
C         40.58840       91.47158       45.76191
C         41.00545       90.18439       46.48968
O         41.43732       92.50820       46.17455
H         38.86972       91.22199       48.00162
H         38.97072       92.86416       45.45143
H         40.69760       91.31011       44.66082
H         42.17322       92.56579       45.51008
H         42.05653       89.94160       46.22914
H         40.94397       90.31525       47.58918
H         40.38402       89.31573       46.19998
N         36.78756       91.22327       45.60384
C         35.71417       90.34594       45.17996
C         35.14316       91.01469       43.95634
O         34.07005       91.59741       44.00793
C         34.73914       90.16034       46.37631
C         33.73420       89.03405       46.13021
O         35.44486       89.89080       47.56545
H         36.52739       92.13852       46.00538
H         36.10186       89.34410       44.88977
H         34.19373       91.11582       46.54126
H         36.09871       89.16685       47.38297
H         33.13608       89.22385       45.21680
H         34.27461       88.06836       46.01699
H         33.05078       88.94761       47.00179
N         35.95589       91.10193       42.85888
C         35.81523       92.05568       41.76595
C         36.09885       93.45310       42.28801
O         36.10121       93.66709       43.49220
C         34.47384       91.95178       41.01420
C         34.35892       90.63383       40.23807
C         32.95299       90.47434       39.64117
C         32.84413       89.31318       38.63805
N         33.21238       88.01961       39.21456
H         36.83011       90.55374       42.85913
H         36.64222       91.85079       41.04757
H         34.39530       92.77990       40.27559
H         33.62977       92.06698       41.72126
H         34.56247       89.77287       40.90957
H         35.12058       90.64790       39.42686
H         32.67368       91.40081       39.09370
H         32.22665       90.33122       40.47209
H         33.49565       89.52338       37.76131
H         31.79207       89.26663       38.27806
H         33.05450       87.27633       38.49599
H         34.22568       88.00786       39.46986
H         32.62497       87.81279       40.05396
N         36.45922       94.44102       41.42461
C         36.84998       95.77211       41.87613
C         38.02108       95.71475       42.85308
O         37.86335       96.24409       43.94386
C         37.16056       96.71470       40.69667
C         35.91460       96.97493       39.83980
C         36.21651       97.94890       38.74028
O         35.56288       99.12477       38.68494
O         37.04857       97.67915       37.88862
H         36.49380       94.22013       40.41793
H         35.99109       96.22850       42.41975
H         37.96493       96.30855       40.05685
H         37.50278       97.69019       41.10997
H         35.11313       97.39426       40.48627
H         35.54314       96.03184       39.38778
N         39.21461       95.10143       42.60969
C         39.58230       94.37219       41.41740
H         40.60730       93.95897       41.54488
H         38.89491       93.51874       41.25648
H         39.61208       95.03481       40.53630
H         39.91323       95.13003       43.35693
Ca        37.70028       97.02014       47.61988
O         39.74277       99.18790       46.23928
H         39.24427       99.99851       45.96932
H         40.69013       99.47320       46.26053
O         36.00475       95.23093       46.02203
H         35.55930       95.62969       45.23387
H         35.54283       94.36766       46.15823
O         36.28927       98.48397       45.34504
H         36.14553       99.46140       45.40526
H         35.46436       98.13619       44.92255

Ca 1.0



