%chk=apoCaM-CA-Ng.loop4.water3.frame205.chk
%nprocshared=20
%mem=10GB
%nosave
#b3lyp/svp scf=(tight,noincore,xqc) Test 
#IOP(5/87=12) Density=Current Pop=(MK,readradii) iop(6/33=2) iop(6/42=6)

apoCaM-CA-Ng.loop4.water3.frame205 

   -3  1 
C         35.94286       41.08337       41.35604
C         36.54678       42.16584       40.51383
O         36.86744       41.88252       39.37637
H         35.02230       40.70622       40.85968
H         36.66466       40.24442       41.45024
H         35.67921       41.44970       42.36834
N         36.71291       43.43400       40.99136
C         37.25645       44.54865       40.21341
C         36.36440       44.85569       39.02094
O         36.77552       44.70506       37.88553
C         38.78960       44.43149       39.97760
C         39.36683       43.24099       39.24783
O         39.30384       43.12069       37.90667
O         40.07302       42.45990       39.86571
H         36.40445       43.63622       41.95427
H         37.19027       45.46371       40.84601
H         39.23199       44.41795       40.99978
H         39.16150       45.35704       39.48739
N         35.09852       45.30952       39.27748
C         34.01028       45.65124       38.35279
C         34.29273       46.87374       37.47132
O         33.63185       47.88554       37.66321
C         33.48698       44.43495       37.53870
C         32.11092       44.74086       36.87320
C         33.38118       43.16536       38.40186
C         30.93524       44.96619       37.83903
H         34.85320       45.41024       40.27588
H         33.17937       45.94749       39.02644
H         34.21880       44.20870       36.73259
H         31.84160       43.88090       36.22978
H         32.19112       45.63853       36.22781
H         34.38044       42.86031       38.76752
H         32.72624       43.32060       39.28263
H         32.98080       42.32767       37.79733
H         30.01225       45.15848       37.25400
H         30.75377       44.06972       38.46603
H         31.08812       45.84473       38.49471
N         35.23843       46.86681       36.48747
C         35.54325       48.03311       35.66492
C         34.46872       48.34304       34.62698
O         34.05383       49.49259       34.58618
C         36.92161       47.90648       34.97300
C         38.03984       47.88475       35.97829
O         38.81283       46.94375       36.02221
O         38.21284       48.92394       36.81775
H         35.79416       46.02182       36.32852
H         35.64752       48.92406       36.32677
H         37.08684       48.79487       34.32481
H         36.98147       47.00984       34.33046
N         34.00026       47.45625       33.69718
C         34.24115       46.02105       33.70865
C         33.69961       45.35183       32.45310
O         32.59027       45.68859       32.06371
H         33.36767       47.83383       32.97393
H         33.70917       45.59948       34.58007
H         35.29258       45.79730       33.85579
N         34.33903       44.34233       31.77847
C         35.57096       43.65953       32.17371
C         35.40798       43.13852       33.60519
O         36.16745       43.53588       34.47681
C         36.81540       44.54203       31.89348
C         38.12634       43.81475       32.04992
O         39.27464       44.46777       31.78975
O         38.16868       42.64321       32.39233
H         33.84939       43.94776       30.95929
H         35.70897       42.78560       31.49883
H         36.84858       45.44559       32.52145
H         36.76186       44.87893       30.83599
N         34.37995       42.30523       33.95798
C         33.45942       41.69391       33.01369
C         32.11870       42.37941       33.00112
O         31.83670       43.21817       33.84327
H         34.22860       42.10547       34.95371
H         33.36162       40.60505       33.20975
H         33.85653       41.76785       31.98679
N         31.28535       42.14069       31.95493
C         30.06711       42.90755       31.71180
C         28.93512       42.61643       32.68829
O         27.94295       43.33083       32.63504
C         29.60296       42.71121       30.24931
C         29.20166       41.25958       29.90890
C         28.84144       41.07561       28.45395
N         28.50774       39.84727       27.99639
O         28.86310       42.02102       27.67853
H         31.62346       41.48527       31.23624
H         30.33300       43.98389       31.81268
H         30.44331       43.01622       29.58590
H         28.74416       43.38659       30.04112
H         28.34128       40.96112       30.53924
H         30.03707       40.56367       30.11925
H         28.49684       39.03573       28.63049
H         28.27060       39.70387       27.00378
N         28.98240       41.57943       33.57343
C         27.88648       41.25196       34.48775
C         27.22241       39.92860       34.13387
O         26.24367       39.59050       34.78470
C         28.36323       41.25887       35.96809
C         28.67335       42.68435       36.42945
C         29.57729       40.34415       36.21635
H         29.80794       40.96475       33.56985
H         27.06640       41.99897       34.39671
H         27.52466       40.89875       36.60525
H         29.49791       43.12360       35.83183
H         27.77036       43.32339       36.32062
H         28.95576       42.67963       37.50342
H         30.47816       40.71200       35.68072
H         29.82355       40.32492       37.29900
H         29.36105       39.30559       35.88962
N         27.66036       39.14531       33.10657
C         26.99002       37.91792       32.69856
C         27.90282       36.72681       32.91141
O         27.47577       35.77062       33.54453
C         26.55513       38.01728       31.22248
C         25.66238       39.21081       30.95966
N         24.48673       39.36852       31.61218
O         26.00582       40.04578       30.13711
H         28.48421       39.43137       32.56309
H         26.06754       37.74349       33.29544
H         26.00253       37.09342       30.94360
H         27.45498       38.08662       30.57456
H         24.16590       38.68034       32.30719
H         23.89290       40.19008       31.42196
N         29.17919       36.71943       32.42862
C         30.07906       35.57604       32.55044
C         31.28046       35.88084       33.41747
O         31.56556       37.04286       33.65250
C         30.65245       35.25714       31.15279
C         29.62849       34.81134       30.15541
C         29.01761       33.55933       30.30066
C         29.31331       35.61499       29.04731
C         28.11367       33.10521       29.33925
C         28.39934       35.16432       28.09248
C         27.80372       33.90549       28.22923
O         26.94450       33.47158       27.28645
H         29.53465       37.55857       31.94572
H         29.55381       34.70208       32.99354
H         31.43128       34.46554       31.20249
H         31.16100       36.17860       30.78377
H         29.26364       32.92665       31.14479
H         29.77728       36.58593       28.91845
H         27.66465       32.12745       29.45383
H         28.16517       35.78886       27.23959
H         26.53242       32.59725       27.33327
N         32.10504       34.84115       33.76549
C         33.47973       34.90997       34.26338
C         33.67027       35.36083       35.71260
O         34.23358       34.60024       36.48832
C         34.33625       35.72323       33.27089
C         35.84096       35.51714       33.48289
C         36.62902       36.26907       32.44911
O         37.51372       37.21026       32.82769
O         36.47996       36.02390       31.26181
H         31.78515       33.89391       33.50757
H         33.86581       33.86449       34.21702
H         34.08616       36.80416       33.33325
H         34.09215       35.36907       32.24383
H         36.08318       34.43541       33.39022
H         36.13281       35.86122       34.49755
N         33.31084       36.60351       36.12891
C         33.65358       37.17790       37.42898
C         33.02295       36.46240       38.62151
O         33.34775       36.84205       39.73907
C         33.20835       38.66140       37.46983
C         33.78327       39.56143       36.35758
C         35.23738       39.88449       36.51683
O         36.10019       39.02590       36.42830
O         35.56754       41.17104       36.72493
H         32.84261       37.20569       35.45920
H         34.75752       37.12433       37.54743
H         33.45552       39.12232       38.45232
H         32.10090       38.67198       37.36171
H         33.22397       40.51627       36.41201
H         33.61035       39.16574       35.33910
N         32.11702       35.44991       38.48803
C         31.50647       34.78073       39.62203
H         30.40440       34.90220       39.57082
H         31.75263       33.69915       39.59000
H         31.85198       35.18546       40.59730
H         31.82307       35.13351       37.55485
Ca        37.57961       42.13878       36.86093
O         39.13802       44.03097       34.90337
H         39.07827       44.48020       35.78088
H         40.04971       44.23765       34.57900
O         39.64232       40.94541       34.84412
H         39.22349       40.04863       34.82036
H         39.85227       41.14673       33.89797
O         39.40552       39.70226       37.90122
H         39.25575       39.93848       38.85073
H         38.49654       39.55597       37.53848

Ca 1.0



