%chk=apoCaM-CA-Ng.loop2.water4.frame1083.chk
%nprocshared=20
%mem=10GB
%nosave
#b3lyp/svp scf=(tight,noincore,xqc) Test 
#IOP(5/87=12) Density=Current Pop=(MK,readradii) iop(6/33=2) iop(6/42=6)

apoCaM-CA-Ng.loop2.water4.frame1083 

   -2  1 
C         35.13235       72.84682       47.39855
C         34.91827       73.96412       46.40704
O         35.14611       73.73247       45.22876
H         35.89695       73.13943       48.14754
H         34.19564       72.56514       47.90978
H         35.49759       71.93483       46.87911
N         34.52462       75.22343       46.76596
C         34.24636       75.65628       48.13401
C         34.48475       77.16728       48.26364
O         35.52483       77.60756       47.79468
C         32.84850       75.15205       48.57961
C         31.75562       75.55645       47.61808
O         31.11521       74.69861       47.03120
O         31.47741       76.85233       47.38950
H         34.47424       75.93137       46.01689
H         35.02176       75.22346       48.80213
H         32.61377       75.48796       49.60967
H         32.85179       74.04956       48.62821
N         33.62773       78.01308       48.92247
C         33.85814       79.44679       49.11688
C         33.78698       80.26346       47.83134
O         34.01533       81.46360       47.89516
C         35.16403       79.69799       49.88591
H         32.77782       77.63961       49.36205
H         33.04207       79.83899       49.76489
H         36.05969       79.40508       49.30460
H         35.25799       80.77765       50.13003
H         35.14946       79.13127       50.84105
N         33.38850       79.71075       46.65150
C         33.18849       80.46995       45.42290
C         31.70481       80.59015       45.12229
O         30.88613       80.13258       45.90925
C         34.02158       79.86622       44.26065
C         34.13171       78.35722       44.18534
O         35.24822       77.86282       44.17900
O         33.07405       77.52190       44.11828
H         33.12782       78.71695       46.62292
H         33.51505       81.52789       45.53299
H         35.06150       80.24208       44.38711
H         33.67868       80.26218       43.28428
N         31.28792       81.25315       44.00656
C         29.89516       81.47135       43.66621
C         29.48815       80.73802       42.40625
O         28.37980       80.98189       41.95116
H         31.98626       81.64250       43.35653
H         29.75589       82.56526       43.51870
H         29.20787       81.15579       44.48008
N         30.29103       79.80535       41.80339
C         29.90210       79.09254       40.58727
C         29.70386       77.60685       40.83437
O         29.96879       77.11416       41.91961
C         30.96650       79.29625       39.49016
C         31.06860       80.73337       39.05438
N         32.24296       81.40057       39.12925
O         30.08213       81.29459       38.60123
H         31.20450       79.57106       42.21944
H         28.92291       79.46554       40.21673
H         30.69890       78.70625       38.59023
H         31.94903       78.92187       39.85618
H         33.09148       80.94256       39.49201
H         32.30685       82.37788       38.80807
N         29.19207       76.83764       39.83219
C         28.92128       75.41379       39.93323
C         27.44990       75.13407       39.71197
O         26.68027       76.07782       39.59204
H         28.95818       77.28865       38.93533
H         29.22500       75.00447       40.92175
H         29.49971       74.91132       39.14216
N         26.94007       73.86944       39.66991
C         27.72795       72.64497       39.78959
C         28.56033       72.40053       38.53084
O         27.99294       72.21781       37.46361
C         26.77805       71.44818       40.05252
C         27.52681       70.11990       40.20108
O         26.06049       71.69867       41.23586
H         25.91433       73.78382       39.58203
H         28.38321       72.73157       40.68472
H         26.07389       71.36428       39.18943
H         25.17219       71.26607       41.14034
H         28.24961       70.17336       41.04214
H         26.79938       69.30520       40.40349
H         28.07085       69.86687       39.26706
N         29.92193       72.36972       38.60255
C         30.80910       72.06179       37.47395
C         30.69454       70.56936       37.15940
O         31.00555       69.78705       38.04665
C         32.27748       72.44905       37.86687
C         32.36477       73.99067       38.04397
C         33.31692       71.96520       36.84005
C         33.71250       74.49960       38.55182
H         30.34802       72.57176       39.51988
H         30.53037       72.68206       36.59698
H         32.52160       71.95004       38.83198
H         31.61701       74.32515       38.78463
H         32.12408       74.48485       37.07878
H         33.26007       70.86467       36.70621
H         33.17254       72.47417       35.86764
H         34.34637       72.17011       37.19581
H         34.52926       74.28895       37.83375
H         33.65906       75.60084       38.68110
H         33.94461       74.04115       39.53556
N         30.24322       70.05295       35.97184
C         29.75240       70.82522       34.83028
C         30.86518       71.43641       33.98619
O         32.03046       71.12372       34.18369
C         28.83827       69.93815       33.94293
C         29.54420       68.75604       33.32529
O         30.46065       68.92147       32.53600
O         29.14541       67.50462       33.62389
H         30.15611       69.02477       35.92855
H         29.10066       71.63582       35.21495
H         28.38716       70.54171       33.12726
H         28.00392       69.56332       34.57543
N         30.54005       72.31404       32.99399
C         31.48727       72.93857       32.06815
C         30.73958       73.97016       31.23272
O         29.77107       73.57455       30.59100
C         32.16156       71.88391       31.14880
C         33.15228       72.51706       30.18833
C         32.71196       73.15746       29.01278
C         34.53056       72.47877       30.46377
C         33.62947       73.75280       28.14167
C         35.44415       73.08310       29.59302
C         34.99417       73.71991       28.43386
H         29.54223       72.56678       32.90914
H         32.29590       73.42204       32.64837
H         31.41631       71.28946       30.57504
H         32.70633       71.16390       31.79324
H         31.66028       73.19268       28.76221
H         34.89796       71.99623       31.36026
H         33.28200       74.24153       27.23999
H         36.50241       73.06036       29.81830
H         35.70277       74.18655       27.76124
N         31.10733       75.28861       31.13642
C         32.30929       75.90428       31.70237
C         32.37269       75.96031       33.22001
O         31.48387       75.45743       33.89049
C         32.30036       77.32138       31.11355
C         31.60945       77.10687       29.78469
C         30.46630       76.19853       30.20942
H         33.18755       75.34807       31.30460
H         31.62122       77.96784       31.70827
H         33.29759       77.80825       31.06307
H         31.28810       78.03732       29.27127
H         32.29486       76.53541       29.11733
H         29.69741       76.78225       30.76417
H         30.00703       75.70317       29.32632
N         33.45074       76.54868       33.82014
C         33.67842       76.54532       35.26197
C         35.12166       76.95619       35.57774
O         35.33535       77.91773       36.30041
C         32.60696       77.37661       36.03957
C         32.54740       78.89559       35.76430
C         32.12715       79.22710       34.36718
O         30.91340       78.84780       33.92577
O         32.86302       79.87485       33.63964
H         34.17531       76.95690       33.21104
H         33.59573       75.49760       35.61686
H         32.81239       77.25174       37.12418
H         31.59792       76.94962       35.86410
H         33.51556       79.38128       35.99175
H         31.79761       79.34649       36.44794
N         36.19696       76.25720       35.10898
C         36.10668       75.05976       34.29783
H         35.62763       75.26845       33.32220
H         37.12696       74.67543       34.08645
H         35.54063       74.27286       34.83842
H         37.14218       76.58140       35.36800
Ca        30.86667       77.84791       44.41518
O         31.95819       74.63199       43.58134
H         32.92314       74.85200       43.55533
H         31.89197       73.89037       44.23389
O         28.53996       77.18981       46.83398
H         28.75908       76.42806       47.42707
H         27.55986       77.29639       46.92177
O         27.89634       77.72679       43.86390
H         27.54572       78.59134       44.19425
H         27.26817       77.45547       43.14854
O         28.82609       74.71141       44.71525
H         28.44756       74.19548       45.47103
H         28.06902       74.82277       44.08690

Ca 1.0



