%chk=apoCaM-CA-Ng.loop2.water5.frame1137.chk
%nprocshared=20
%mem=10GB
%nosave
#b3lyp/svp scf=(tight,noincore,xqc) Test 
#IOP(5/87=12) Density=Current Pop=(MK,readradii) iop(6/33=2) iop(6/42=6)

apoCaM-CA-Ng.loop2.water5.frame1137 

   -2  1 
C         97.69907       53.11996       69.58627
C         97.26817       53.57179       70.95353
O         96.16757       53.22471       71.35690
H         98.62452       52.51245       69.65612
H         96.90738       52.49855       69.11438
H         97.87394       54.00594       68.94002
N         98.04224       54.36528       71.74843
C         99.37857       54.85396       71.40983
C         99.37255       56.36341       71.20882
O         98.34397       56.99830       71.39382
C        100.39584       54.39316       72.47787
C         99.96774       54.75176       73.87550
O         99.78021       53.86843       74.69627
O         99.73167       56.03046       74.21762
H         97.64579       54.65087       72.65521
H         99.71248       54.43865       70.43728
H        101.39864       54.82031       72.26925
H        100.48597       53.28571       72.41573
N        100.49281       56.98268       70.72666
C        100.55031       58.37076       70.27182
C        100.39433       59.42840       71.35948
O        100.33016       60.59567       70.99703
C         99.54693       58.58691       69.12449
H        101.33572       56.41069       70.56640
H        101.55526       58.54404       69.82584
H         98.49614       58.49283       69.46336
H         99.67536       59.59815       68.68332
H         99.73225       57.84180       68.32080
N        100.41362       59.14119       72.69585
C        100.31451       60.19328       73.71190
C        100.72846       59.69549       75.08967
O        100.19996       58.70685       75.56859
C         98.91119       60.84936       73.72783
C         97.76774       59.90087       73.97447
O         97.64922       59.25313       75.14691
O         96.90580       59.75460       73.12277
H        100.56707       58.16874       72.99616
H        101.03214       61.00185       73.44785
H         98.74242       61.34677       72.74990
H         98.88978       61.64778       74.50147
N        101.68875       60.36181       75.79255
C        102.16426       59.95892       77.10703
C        101.15295       60.08134       78.24067
O        101.55102       59.80585       79.36347
H        102.13861       61.18639       75.36599
H        103.01901       60.61849       77.37682
H        102.54909       58.91789       77.05385
N         99.86157       60.49689       78.06096
C         98.91100       60.68090       79.16272
C         97.70310       59.75816       79.01327
O         97.67267       58.96254       78.08502
C         98.46883       62.15843       79.18880
C         99.64284       63.09147       79.35108
N         99.90985       64.03290       78.41617
O        100.35491       63.00152       80.34040
H         99.52775       60.73397       77.11732
H         99.38128       60.44285       80.14225
H         97.78139       62.34283       80.03893
H         97.92236       62.39045       78.24864
H         99.31777       64.12972       77.57839
H        100.70932       64.67285       78.53204
N         96.65776       59.82504       79.89782
C         95.46332       58.98749       79.81276
C         95.16805       58.28609       81.12810
O         95.88741       58.51224       82.09135
H         96.68844       60.52268       80.65486
H         95.58088       58.23490       79.01205
H         94.59172       59.62827       79.56911
N         94.14112       57.39329       81.27633
C         93.28042       56.93335       80.18561
C         92.14653       57.89043       79.85535
O         91.79245       58.74254       80.65813
C         92.65063       55.55292       80.51599
C         93.71180       54.45943       80.64131
O         91.91405       55.61479       81.71314
H         94.05759       56.93001       82.19520
H         93.90386       56.79081       79.27895
H         91.98598       55.23077       79.67902
H         91.00549       55.94329       81.48497
H         94.42496       54.68085       81.46194
H         93.21939       53.48660       80.85352
H         94.27380       54.36664       79.68765
N         91.51164       57.74467       78.65570
C         90.31719       58.46984       78.22224
C         89.33736       57.47309       77.57836
O         89.80842       56.59253       76.87025
C         90.68917       59.62181       77.23852
C         91.37395       59.11791       75.94089
C         91.55291       60.66629       77.97453
C         91.69392       60.23323       74.94393
H         91.92024       57.06790       77.99301
H         89.84093       58.97263       79.08522
H         89.74261       60.12984       76.95136
H         90.68888       58.41766       75.42063
H         92.31522       58.58032       76.18219
H         92.53813       60.24018       78.25541
H         91.71833       61.56708       77.35119
H         91.03608       61.01333       78.89506
H         92.11504       59.78838       74.01828
H         90.77298       60.79644       74.68297
H         92.45357       60.93114       75.35038
N         87.97456       57.53976       77.67277
C         87.22090       58.55520       78.40154
C         85.78533       58.69339       77.87510
O         85.33506       57.89021       77.07026
C         87.20331       58.23848       79.91949
C         86.55823       56.91020       80.22564
O         85.44789       56.85803       80.98575
O         87.04781       55.87323       79.80580
H         87.45008       56.84444       77.11951
H         87.69738       59.53853       78.21272
H         86.64952       59.03926       80.45391
H         88.22769       58.21632       80.33768
N         85.01373       59.72985       78.31078
C         83.61452       59.93542       77.94421
C         83.43364       61.33108       77.33480
O         83.93263       62.27526       77.93044
C         82.78703       59.82517       79.23979
C         81.30337       59.86020       78.98029
C         80.53126       60.95127       79.40860
C         80.67681       58.79238       78.31290
C         79.15596       60.97965       79.16067
C         79.30095       58.82313       78.07042
C         78.54129       59.91709       78.49228
H         85.43165       60.39688       78.97681
H         83.26982       59.14468       77.24720
H         83.09010       60.65203       79.91981
H         83.01733       58.87014       79.76139
H         80.99439       61.78313       79.92417
H         81.25384       57.93809       77.97983
H         78.56697       61.82657       79.48670
H         78.82456       57.99924       77.55479
H         77.47634       59.94082       78.30251
N         82.70101       61.57968       76.19814
C         81.93573       60.60033       75.44529
C         82.80184       59.72752       74.55561
O         82.29925       58.72417       74.07156
C         80.94690       61.46425       74.65272
C         81.77935       62.69392       74.35087
C         82.49213       62.92013       75.68256
H         81.34886       59.94899       76.11568
H         80.46713       60.97155       73.78044
H         80.14136       61.79632       75.34926
H         82.53568       62.40252       73.58795
H         81.22116       63.57900       73.97678
H         83.44076       63.47358       75.51016
H         81.85213       63.47388       76.40490
N         84.10675       60.03524       74.30371
C         85.00061       59.15729       73.56187
C         84.45479       58.89894       72.15812
O         84.35483       59.86198       71.41053
C         86.44930       59.71843       73.42927
C         87.18955       59.99540       74.75738
C         86.93838       61.34327       75.39598
O         86.32304       62.22375       74.81555
O         87.49558       61.61879       76.58917
H         84.46722       60.90981       74.67809
H         85.08810       58.23526       74.15518
H         86.50444       60.61417       72.77303
H         87.01807       58.90751       72.92129
H         88.28216       59.97549       74.56193
H         86.97000       59.17072       75.46076
N         84.07747       57.67196       71.68012
C         84.07447       56.40908       72.39761
H         83.04527       55.99240       72.38738
H         84.74842       55.69283       71.88343
H         84.38379       56.46712       73.45086
H         83.74777       57.62379       70.70329
Ca        98.76359       56.44971       76.21665
O        100.18436       57.03690       78.67802
H        100.11315       57.37391       79.60589
H        101.13884       57.14678       78.44011
O         95.40791       57.38113       76.60343
H         94.99324       58.04806       76.00068
H         94.66141       56.79047       76.87439
O         97.95860       53.76264       77.07399
H         97.48421       53.97139       76.22994
H         97.65358       52.85242       77.31230
O         96.43266       56.34149       74.17237
H         97.05066       56.94659       73.69214
H         95.78381       56.05010       73.48433
O         97.32836       56.10045       79.06354
H         96.75702       55.29434       79.11775
H         97.46931       56.37101       80.00538

Ca 1.0



