%chk=apoCaM-CA-Ng.loop2.water5.frame1116.chk
%nprocshared=20
%mem=10GB
%nosave
#b3lyp/svp scf=(tight,noincore,xqc) Test 
#IOP(5/87=12) Density=Current Pop=(MK,readradii) iop(6/33=2) iop(6/42=6)

apoCaM-CA-Ng.loop2.water5.frame1116 

   -2  1 
C         68.01675       41.24984       64.63221
C         69.44062       41.70667       64.47924
O         69.83887       42.61406       65.19487
H         67.46338       41.38485       63.68073
H         68.00254       40.17959       64.93008
H         67.50208       41.83636       65.42294
N         70.30906       41.12712       63.60236
C         69.97450       40.04542       62.68327
C         70.39382       40.44332       61.26448
O         70.05232       41.54270       60.85358
C         70.56466       38.71253       63.21525
C         72.06029       38.73201       63.40140
O         72.77063       37.95675       62.78209
O         72.61708       39.56747       64.29650
H         71.27648       41.47332       63.59799
H         68.87726       39.89581       62.65070
H         70.26896       37.88134       62.53986
H         70.11536       38.49165       64.20733
N         71.11503       39.60917       60.45633
C         71.60054       39.92871       59.11762
C         72.67478       41.00816       59.14177
O         72.74999       41.81759       58.22788
C         70.45303       40.21448       58.13694
H         71.35729       38.66796       60.78725
H         72.11791       39.01516       58.74550
H         69.73837       39.36414       58.13434
H         69.90652       41.13967       58.41042
H         70.84959       40.33742       57.10674
N         73.59119       41.01955       60.14950
C         74.77179       41.88174       60.20235
C         76.00745       40.98454       60.35083
O         75.84939       39.76972       60.32511
C         74.62150       42.88938       61.37165
C         74.56331       42.18271       62.69186
O         75.59906       41.40641       63.04631
O         73.57119       42.24678       63.39535
H         73.46530       40.35318       60.92780
H         74.87295       42.48132       59.27210
H         73.69500       43.48589       61.21185
H         75.47599       43.59811       61.38061
N         77.25568       41.49543       60.57677
C         78.41181       40.63673       60.81752
C         78.92883       40.80136       62.22970
O         78.15726       40.65151       63.16490
H         77.38814       42.51602       60.62338
H         79.20088       40.85160       60.06727
H         78.14682       39.56605       60.70506
N         80.24853       41.03575       62.46905
C         80.79056       41.15010       63.82093
C         80.33504       42.43860       64.47041
O         80.62083       43.50454       63.94076
C         82.33334       41.13080       63.80231
C         82.87749       39.80582       63.33137
N         82.64746       38.67396       64.03951
O         83.54975       39.75654       62.31264
H         80.89273       41.08087       61.66477
H         80.45273       40.28187       64.42924
H         82.72520       41.30578       64.82872
H         82.70194       41.95237       63.14841
H         82.10143       38.69702       64.91335
H         83.02974       37.77076       63.72305
N         79.65122       42.41884       65.64940
C         79.27835       43.63303       66.35729
C         80.49716       44.39078       66.87265
O         81.61169       43.92598       66.67771
H         79.39083       41.51348       66.07011
H         78.65824       43.35642       67.23817
H         78.67169       44.27275       65.68066
N         80.39523       45.56083       67.57091
C         79.14150       46.23306       67.87973
C         79.16995       47.63581       67.29663
O         79.95659       48.45883       67.74634
C         78.92767       46.25517       69.41220
C         77.60887       46.92738       69.80179
O         78.90904       44.93890       69.90400
H         81.26623       45.99837       67.91249
H         78.28576       45.68371       67.44053
H         79.74946       46.83118       69.90234
H         79.84821       44.68795       70.10672
H         77.59516       47.98672       69.47640
H         76.75067       46.39388       69.34038
H         77.49046       46.90843       70.90583
N         78.33408       47.96944       66.27262
C         78.26438       49.31797       65.70441
C         77.69911       50.31513       66.72550
O         77.14386       49.86865       67.71902
C         77.46001       49.32638       64.35214
C         76.08945       48.58928       64.32416
C         78.34504       48.74533       63.23680
C         75.08656       49.03722       65.37979
H         77.74912       47.22067       65.88321
H         79.29890       49.62980       65.47894
H         77.25195       50.36965       64.06470
H         76.21723       47.49068       64.41195
H         75.62988       48.77102       63.32754
H         78.59741       47.68358       63.44307
H         77.82918       48.81023       62.25518
H         79.28961       49.32617       63.15446
H         75.43622       48.75772       66.39067
H         74.91202       50.13035       65.31963
H         74.12444       48.50822       65.21289
N         77.77342       51.67969       66.59808
C         78.55706       52.42933       65.60783
C         78.06777       53.87489       65.46254
O         77.17135       54.29632       66.18250
C         80.06245       52.39054       65.98463
C         80.32309       52.86550       67.39063
O         80.82878       52.10895       68.20531
O         80.00952       54.12175       67.75922
H         77.30488       52.22471       67.33925
H         78.42761       52.00059       64.60278
H         80.65921       53.00291       65.27790
H         80.44919       51.35921       65.89956
N         78.62259       54.68842       64.51425
C         78.24795       56.08449       64.31002
C         77.80628       56.31288       62.86066
O         78.57481       55.95663       61.97541
C         79.46967       56.99101       64.58258
C         79.06250       58.44689       64.53521
C         79.39130       59.25199       63.43129
C         78.31427       59.00062       65.58992
C         78.96253       60.58281       63.37809
C         77.89829       60.33408       65.53751
C         78.21737       61.12311       64.42994
H         79.36661       54.30480       63.91121
H         77.46357       56.37862       65.03081
H         80.24940       56.77276       63.81903
H         79.92096       56.78117       65.57674
H         79.95489       58.84431       62.60174
H         78.05037       58.39721       66.44970
H         79.20157       61.19432       62.51775
H         77.32164       60.75298       66.35224
H         77.88478       62.15228       64.38603
N         76.65886       56.98074       62.51296
C         75.71070       57.56719       63.44289
C         74.92271       56.51752       64.18376
O         74.96746       56.49299       65.40607
C         74.80661       58.45479       62.56400
C         75.73842       58.80051       61.41612
C         76.39322       57.44584       61.16802
H         76.26761       58.23315       64.12997
H         73.98212       57.86857       62.10588
H         74.34655       59.31481       63.09598
H         75.23452       59.23874       60.52840
H         76.51248       59.51028       61.78664
H         75.65863       56.75827       60.69179
H         77.29725       57.53592       60.52791
N         74.13873       55.63871       63.49443
C         73.26396       54.68463       64.14218
C         71.86212       55.27315       64.10199
O         71.34651       55.46909       63.00986
C         73.27292       53.29937       63.44411
C         74.62033       52.54614       63.44528
C         75.65106       53.02104       62.45025
O         76.83651       52.38775       62.38362
O         75.41603       53.91834       61.65919
H         74.06061       55.73549       62.47243
H         73.59046       54.52696       65.18940
H         72.88955       53.36613       62.40149
H         72.55776       52.66983       64.01861
H         74.41053       51.48936       63.17011
H         75.04497       52.55576       64.47119
N         71.17149       55.62771       65.22264
C         71.68151       55.47939       66.56827
H         72.61334       56.07056       66.69296
H         70.93439       55.85683       67.29765
H         71.87654       54.40842       66.78622
H         70.23308       56.04195       65.11140
Ca        75.39167       39.46549       64.15306
O         75.90154       40.66536       66.56325
H         76.37189       41.51710       66.38176
H         76.29987       40.32305       67.40121
O         77.81725       38.18158       65.18830
H         78.57135       38.69748       65.56896
H         78.11374       37.23782       65.22155
O         77.39894       37.41671       62.16971
H         77.09793       37.32030       61.23141
H         78.28006       36.96599       62.19542
O         74.57206       37.66730       66.37870
H         73.68030       37.56446       65.96092
H         74.39831       37.62110       67.35172
O         75.03262       36.12290       63.72075
H         75.35574       35.50106       63.02162
H         74.10807       35.82358       63.91052

Ca 1.0



