%chk=apoCaM-CA-Ng.loop3.water4.frame1006.chk
%nprocshared=20
%mem=10GB
%nosave
#b3lyp/svp scf=(tight,noincore,xqc) Test 
#IOP(5/87=12) Density=Current Pop=(MK,readradii) iop(6/33=2) iop(6/42=6)

apoCaM-CA-Ng.loop3.water4.frame1006 

   0  1 
C         22.56235       52.76981        9.50877
C         22.33121       54.16348        9.01055
O         22.20241       55.05865        9.83384
H         23.49106       52.74580       10.11710
H         21.70492       52.46183       10.14364
H         22.66406       52.04951        8.67131
N         22.27465       54.43211        7.67258
C         22.06095       55.78233        7.16382
C         20.75207       56.37107        7.69094
O         20.82122       57.20632        8.58016
C         22.24269       55.88405        5.62230
C         21.49991       54.90364        4.73612
O         20.77369       53.88406        5.23439
O         21.61617       55.00201        3.52528
H         22.42419       53.65599        7.01248
H         22.87326       56.40815        7.59127
H         23.31994       55.72550        5.39670
H         21.98565       56.91985        5.31369
N         19.53462       56.00187        7.20989
C         18.26592       56.46958        7.75385
C         17.64656       57.45581        6.79923
O         17.50708       57.14583        5.62296
C         17.33339       55.26813        7.97542
C         17.87957       54.33519        9.06290
C         17.00681       53.08586        9.20544
C         17.50619       52.20619       10.35777
N         16.72519       50.97409       10.45167
H         19.47946       55.36949        6.40834
H         18.40811       56.98285        8.72671
H         17.21678       54.71450        7.01651
H         16.32998       55.62879        8.29360
H         17.90597       54.89281       10.02520
H         18.91335       54.01243        8.80957
H         17.04537       52.51236        8.25276
H         15.95243       53.37849        9.40405
H         17.41925       52.77348       11.31170
H         18.57677       51.94682       10.19967
H         16.85358       50.40571        9.58289
H         17.06142       50.41873       11.27115
H         15.71146       51.19511       10.58288
N         17.25201       58.68643        7.24396
C         16.74762       59.70732        6.33358
C         17.85508       60.13786        5.38475
O         19.00873       59.80963        5.62563
C         16.09797       60.88363        7.10174
C         16.99556       61.54921        8.11046
O         18.00792       62.13052        7.75694
O         16.66272       61.52527        9.41662
H         17.31852       58.89708        8.25104
H         15.93901       59.24553        5.72540
H         15.22035       60.47589        7.65081
H         15.72213       61.64656        6.38784
N         17.56833       60.79901        4.22902
C         18.59101       61.08928        3.23485
C         19.21438       59.78345        2.74219
O         18.46702       58.95967        2.23552
H         16.59163       61.05630        4.02268
H         19.31716       61.79196        3.68269
H         18.12989       61.60925        2.36853
N         20.53792       59.46152        2.89154
C         21.53511       60.35180        3.46571
C         22.80119       59.58547        3.86484
O         23.47895       59.07504        2.98420
C         21.89367       61.46518        2.45354
C         22.91072       62.43226        3.00847
N         24.11692       62.58330        2.41143
O         22.64207       63.08571        4.00537
H         20.83311       58.51116        2.61534
H         21.09586       60.80624        4.36230
H         20.99208       62.04027        2.16274
H         22.28797       60.99007        1.52818
H         24.36399       62.04135        1.57024
H         24.81046       63.24412        2.79168
N         23.22179       59.48452        5.16329
C         22.43398       59.96382        6.28718
C         23.15741       59.85323        7.60114
O         23.58945       58.76874        7.96587
H         24.12382       59.01708        5.35038
H         21.50096       59.36406        6.33869
H         22.18163       61.03326        6.14332
N         23.30626       60.96319        8.37905
C         24.00678       60.97441        9.65167
C         23.09089       61.46600       10.76673
O         21.98596       61.91710       10.48590
C         25.21915       61.91193        9.47272
C         26.19485       61.90075       10.61389
C         26.44754       63.06873       11.35080
C         26.88223       60.71962       10.93325
C         27.37666       63.05264       12.39435
C         27.80976       60.70560       11.97541
C         28.06158       61.87348       12.70948
O         28.95789       61.87369       13.71554
H         22.92372       61.86202        8.04223
H         24.34714       59.94665        9.90264
H         24.83771       62.94203        9.28731
H         25.78256       61.60174        8.56559
H         25.92832       63.99050       11.11842
H         26.70466       59.81214       10.36945
H         27.56445       63.95783       12.95735
H         28.33387       59.78744       12.20697
H         29.45460       61.07946       13.95869
N         23.49202       61.41729       12.06827
C         22.69368       61.96472       13.16676
C         22.46941       63.45762       12.98331
O         23.21369       64.09575       12.25186
C         23.35029       61.70861       14.56814
C         23.23648       60.21578       14.95817
C         24.81191       62.21678       14.63722
C         23.80553       59.89813       16.34527
H         24.39259       60.96724       12.27157
H         21.69197       61.48240       13.14043
H         22.76663       62.27819       15.32607
H         23.74220       59.57101       14.20897
H         22.15594       59.95214       14.97345
H         25.48807       61.61087       14.00295
H         24.88261       63.27867       14.32587
H         25.20718       62.15965       15.67120
H         23.34011       60.54554       17.11895
H         23.59786       58.83745       16.59804
H         24.90670       60.03446       16.36503
N         21.45821       64.07847       13.66070
C         21.26233       65.52333       13.64245
C         19.88963       65.94465       13.14269
O         18.96783       65.14533       13.10528
C         21.45237       66.04526       15.07579
O         20.49912       65.45889       15.92364
H         20.83655       63.50703       14.25216
H         22.01779       66.00380       12.98486
H         21.34366       67.15073       15.10032
H         22.47347       65.76859       15.41981
H         20.70486       65.76735       16.84299
N         19.69402       67.25786       12.82146
C         18.41065       67.89156       12.54084
C         17.52354       67.82164       13.76863
O         16.32745       67.59098       13.64889
C         17.73920       67.34527       11.27154
H         20.51161       67.88620       12.84985
H         18.61653       68.97165       12.36753
H         17.46558       66.27756       11.39028
H         16.80951       67.91641       11.05667
H         18.41932       67.45251       10.40106
N         18.08229       67.97648       15.00622
C         17.35466       67.91665       16.26230
C         16.42567       66.71478       16.31264
O         15.22873       66.89512       16.49548
C         16.62643       69.24416       16.50274
H         19.10177       68.10924       15.07672
H         18.09657       67.82055       17.08727
H         15.85796       69.42720       15.72383
H         16.14161       69.23225       17.50290
H         17.35967       70.07958       16.48807
N         16.91607       65.44960       16.16441
C         16.06004       64.26531       16.22403
C         16.27902       63.48248       17.50507
O         15.50737       62.56881       17.76470
C         16.26681       63.36545       14.98425
C         17.61568       62.61872       15.00688
C         17.81782       61.82111       13.75989
O         18.88253       62.07950       12.98343
O         17.03185       60.94118       13.44456
H         17.93067       65.33157       16.03782
H         14.99622       64.58734       16.22708
H         16.18200       63.99035       14.06708
H         15.45806       62.60149       14.95241
H         17.65399       61.92327       15.87296
H         18.45300       63.33782       15.10138
N         17.31754       63.75647       18.34538
C         17.53454       63.00889       19.56057
H         18.45863       63.36818       20.06112
H         16.67370       63.15387       20.24575
H         17.65313       61.92990       19.32548
H         17.99630       64.49781       18.12334
Ca        19.14038       61.00175       11.04233
O         20.36741       60.28410        8.61855
H         20.45463       59.57446        9.30158
H         19.55249       60.04099        8.11874
O         17.95749       58.38167       11.03063
H         17.05248       58.16725       10.69258
H         18.43377       57.51427       11.04514
O         18.73012       64.00413       10.40524
H         18.10210       63.70538       11.10935
H         18.14538       64.41450        9.72085
O         21.21225       59.00742       12.07175
H         21.96288       58.85924       11.44379
H         20.65187       58.19716       11.98253

Ca 1.0



