%chk=apoCaM-CA-Ng.loop1.water5.frame578.chk
%nprocshared=20
%mem=10GB
%nosave
#b3lyp/svp scf=(tight,noincore,xqc) Test 
#IOP(5/87=12) Density=Current Pop=(MK,readradii) iop(6/33=2) iop(6/42=6)

apoCaM-CA-Ng.loop1.water5.frame578 

   0  1 
C         69.89724       27.21418       77.79160
C         68.88274       27.95656       78.60855
O         69.08514       28.12476       79.80325
H         70.75300       26.89295       78.42364
H         69.42708       26.31392       77.34372
H         70.27815       27.87054       76.98157
N         67.75289       28.44095       78.01902
C         66.73104       29.17720       78.76111
C         66.08883       28.28529       79.82183
O         66.28475       27.07749       79.78656
C         65.67698       29.72348       77.76922
C         64.64639       30.61113       78.40570
O         65.02080       31.75177       79.01626
O         63.46372       30.31305       78.35538
H         67.63613       28.29728       77.00324
H         67.23812       30.03413       79.25895
H         65.17770       28.86623       77.26455
H         66.19380       30.32570       76.99027
N         65.34453       28.82795       80.82899
C         64.73967       28.03762       81.89355
C         63.25370       28.32292       81.98005
O         62.88750       29.46316       82.23459
C         65.40010       28.39685       83.24316
C         64.80004       27.58549       84.40873
C         65.34586       28.04845       85.76138
C         64.65945       27.29605       86.91097
N         65.12386       27.79007       88.20588
H         65.23972       29.85204       80.87530
H         64.90279       26.95118       81.72158
H         65.25216       29.48303       83.43676
H         66.49387       28.20365       83.18784
H         65.00427       26.50290       84.25794
H         63.70135       27.73151       84.43217
H         65.13795       29.13510       85.87730
H         66.44486       27.88658       85.80279
H         64.87095       26.20701       86.82645
H         63.55782       27.44022       86.84765
H         64.62883       27.27699       88.96864
H         66.15283       27.63384       88.30296
H         64.90696       28.80924       88.29852
N         62.34540       27.31140       81.86274
C         60.92783       27.47934       82.16315
C         60.56126       26.47277       83.25689
O         60.80740       25.29371       83.04072
C         60.07600       27.27227       80.90524
C         58.65483       27.70529       81.16152
O         57.92189       27.12311       82.12779
O         58.17397       28.62461       80.51975
H         62.68104       26.36854       81.61157
H         60.75446       28.52240       82.47304
H         60.11388       26.21386       80.56888
H         60.48805       27.90943       80.09148
N         60.02222       26.80107       84.46813
C         59.57303       28.11501       84.88295
C         60.51953       28.66550       85.90372
O         61.67923       28.86313       85.57298
H         59.91173       26.04677       85.16388
H         58.53897       28.02032       85.28061
H         59.50639       28.83736       84.05656
N         60.09581       28.95512       87.16286
C         60.97210       29.50710       88.18535
C         61.04205       28.55616       89.35893
O         62.13566       28.13052       89.70493
C         60.46858       30.90003       88.59832
C         61.39509       31.55398       89.58635
O         62.55967       31.76976       89.28833
O         60.94200       31.91344       90.80182
H         59.10655       28.78728       87.40288
H         62.00350       29.63997       87.78595
H         59.44667       30.82648       89.02835
H         60.41617       31.54686       87.69525
N         59.91307       28.16261       90.01819
C         59.94895       27.25929       91.15435
C         60.47095       25.86898       90.82900
O         60.63217       25.09818       91.76139
H         58.99684       28.53453       89.72591
H         58.92687       27.15252       91.58003
H         60.59692       27.71321       91.93523
N         60.73228       25.46001       89.54837
C         61.26730       24.13541       89.23340
C         61.16953       23.89305       87.73191
O         61.69619       24.67162       86.95183
C         62.72081       23.98013       89.73503
C         63.21537       22.54045       89.54480
O         63.55743       24.87635       89.05322
H         60.50408       26.08938       88.76752
H         60.63493       23.38312       89.75579
H         62.74796       24.20471       90.82410
H         64.42537       24.88321       89.53395
H         62.55939       21.83846       90.10353
H         63.21734       22.25607       88.47165
H         64.24763       22.44146       89.94015
N         60.42697       22.84774       87.27875
C         60.05176       22.66517       85.88106
C         58.61868       23.15390       85.76334
O         58.33666       23.98790       84.91157
C         60.21561       21.18508       85.43323
C         61.62435       20.60771       85.73612
C         59.87365       21.03495       83.93684
C         62.79525       21.36996       85.10943
H         60.00270       22.22484       87.97868
H         60.68160       23.29591       85.21565
H         59.49516       20.55719       86.00343
H         61.66047       19.55263       85.38410
H         61.77969       20.58998       86.83603
H         60.54567       21.65342       83.30553
H         59.96620       19.97373       83.62199
H         58.82938       21.35465       83.73793
H         62.72119       21.39105       84.00375
H         62.84282       22.40714       85.49919
H         63.74509       20.86188       85.38044
N         57.69736       22.77869       86.69453
C         56.37381       23.35938       86.82590
C         55.35775       22.24293       86.92626
O         55.56661       21.29545       87.67633
C         56.32483       24.27321       88.07238
C         57.31693       25.44273       87.93269
O         55.02588       24.79194       88.20470
H         57.97227       22.11518       87.43349
H         56.12942       24.01228       85.95669
H         56.58288       23.67132       88.97465
H         54.96312       25.18719       89.11316
H         57.07920       26.04906       87.03101
H         57.26237       26.10352       88.82328
H         58.35857       25.07314       87.84662
N         54.21024       22.31377       86.20999
C         53.20510       21.26092       86.15834
C         52.95794       20.91981       84.69813
O         53.14258       19.77745       84.30891
C         51.92675       21.69844       86.91045
C         50.86648       20.59076       86.90612
O         51.39330       22.87265       86.35664
H         54.04243       23.18012       85.67658
H         53.57170       20.34637       86.68090
H         52.22907       21.89072       87.96811
H         50.84261       23.29971       87.06395
H         51.27617       19.66381       87.36223
H         49.98348       20.91060       87.49791
H         50.53496       20.36726       85.86990
N         52.60510       21.90618       83.82191
C         52.46836       21.70999       82.38569
C         52.50464       23.06830       81.70024
O         51.75733       23.95999       82.07765
C         51.22339       20.89272       82.01570
C         49.89164       21.59631       82.32530
C         48.66958       20.75999       81.92468
C         48.63465       20.43645       80.41883
N         47.40149       19.74180       80.06127
H         52.51885       22.86511       84.18209
H         53.35188       21.13073       82.03498
H         51.25542       19.91223       82.53688
H         51.29851       20.70626       80.92575
H         49.82814       22.55439       81.77067
H         49.83612       21.81451       83.41419
H         47.76516       21.35219       82.18427
H         48.65219       19.81671       82.51150
H         49.49168       19.78491       80.14580
H         48.70666       21.37863       79.83039
H         47.31892       18.85426       80.60807
H         46.57819       20.35741       80.25186
H         47.42547       19.51215       79.04133
N         53.44918       23.31438       80.75519
C         53.75478       24.64781       80.27022
C         54.99511       25.14472       81.00604
O         54.85165       26.13442       81.71005
C         53.78886       24.69288       78.72431
C         54.14803       26.08412       78.16303
C         55.62198       26.37542       78.26469
O         56.08804       27.39764       79.00720
O         56.41620       25.68075       77.65096
H         54.04395       22.53662       80.45724
H         52.93784       25.35100       80.55691
H         52.75970       24.44342       78.38254
H         54.45918       23.92713       78.28681
H         53.54267       26.86083       78.67734
H         53.89202       26.11941       77.08212
N         56.23048       24.56123       80.97603
C         56.61420       23.37723       80.24154
H         57.69590       23.18633       80.40031
H         56.09784       22.48144       80.62423
H         56.45249       23.51372       79.15809
H         56.97353       24.99557       81.53804
Ca        54.80900       28.69729       80.33564
O         54.99175       28.31173       83.95952
H         54.57640       27.49290       84.33026
H         54.96515       28.96320       84.70472
O         56.33022       31.03202       79.43888
H         55.78352       31.84702       79.30905
H         57.23001       31.36754       79.67871
O         51.83002       28.55843       80.36647
H         52.03521       29.03842       81.20799
H         52.22219       29.12577       79.65553
O         57.05054       30.50396       82.94061
H         56.54819       31.32950       83.15534
H         57.84958       30.54509       83.52297
O         53.90938       30.94255       82.28467
H         53.60788       31.24651       83.17734
H         53.37246       31.47375       81.64456

Ca 1.0



