%chk=apoCaM-CA-Ng.loop1.water3.frame1339.chk
%nprocshared=20
%mem=10GB
%nosave
#b3lyp/svp scf=(tight,noincore,xqc) Test 
#IOP(5/87=12) Density=Current Pop=(MK,readradii) iop(6/33=2) iop(6/42=6)

apoCaM-CA-Ng.loop1.water3.frame1339 

   0  1 
C         60.30815       28.84013       24.39242
C         59.83154       29.70915       25.51612
O         59.07014       30.63401       25.27072
H         61.41784       28.86379       24.34514
H         59.96923       27.79789       24.56277
H         59.90525       29.19786       23.42058
N         60.28259       29.48904       26.78354
C         59.91469       30.32760       27.91933
C         61.08888       31.21155       28.27815
O         61.56590       31.20968       29.40485
C         59.34626       29.50235       29.09948
C         60.26048       28.42713       29.62959
O         60.55682       27.46671       28.93723
O         60.70602       28.48753       30.89878
H         60.97796       28.74197       26.92273
H         59.10955       31.03305       27.62941
H         58.39439       29.02350       28.78664
H         59.10820       30.21061       29.92425
N         61.58956       32.02839       27.31151
C         62.66960       32.97518       27.52782
C         62.13710       34.19251       28.26145
O         62.66898       34.48410       29.32353
C         63.42149       33.30015       26.21434
C         63.88280       31.98735       25.55455
C         64.74048       32.20073       24.31103
C         65.07798       30.83490       23.69255
N         65.94410       30.97771       22.52653
H         61.17174       31.97326       26.37254
H         63.44650       32.48660       28.16101
H         64.30613       33.92686       26.46412
H         62.80927       33.86729       25.48899
H         62.99155       31.39645       25.25411
H         64.46824       31.39178       26.28928
H         65.67391       32.73130       24.59891
H         64.18729       32.81587       23.56795
H         64.13478       30.32493       23.38946
H         65.58884       30.19719       24.44858
H         65.47360       31.56100       21.79755
H         66.84928       31.41824       22.80927
H         66.13737       30.02856       22.13226
N         61.05104       34.92413       27.85977
C         60.22777       34.70262       26.66596
C         58.96842       33.92680       27.04677
O         58.84783       33.54694       28.20237
C         59.93564       36.06632       25.99951
C         59.04268       36.90319       26.86713
O         57.80727       36.44680       27.12916
O         59.43796       37.94474       27.35012
H         60.72609       35.65417       28.51404
H         60.75247       34.09572       25.91714
H         59.43245       35.92356       25.02054
H         60.90041       36.58617       25.80573
N         57.97907       33.66575       26.13785
C         56.78703       32.89421       26.48236
C         55.54211       33.74902       26.52873
O         55.60529       34.92987       26.23852
H         58.05903       34.03409       25.17856
H         56.89112       32.43838       27.48804
H         56.65871       32.06558       25.75404
N         54.36983       33.20448       26.96815
C         53.12408       33.96077       27.12993
C         51.98610       33.27576       26.36902
O         52.18043       32.15789       25.91490
C         52.83826       34.07212       28.65248
C         53.89441       34.93676       29.27514
O         54.02525       36.21342       28.85698
O         54.68381       34.46743       30.07706
H         54.37589       32.21544       27.26104
H         53.24321       34.97739       26.70596
H         52.83621       33.05434       29.10282
H         51.87262       34.53137       28.89941
N         50.76030       33.85324       26.15530
C         50.38112       35.20505       26.53588
C         51.12538       36.26465       25.75989
O         51.79941       35.95522       24.78586
H         50.04269       33.29212       25.66993
H         50.50751       35.35636       27.61597
H         49.29958       35.36401       26.33678
N         51.03943       37.56235       26.16253
C         51.68060       38.67706       25.47050
C         53.16405       38.43194       25.28130
O         53.81631       37.95279       26.19702
C         51.43442       40.01274       26.22280
C         51.86395       41.21741       25.37771
O         52.12983       40.05415       27.44406
H         50.48222       37.76076       27.00813
H         51.19970       38.76464       24.47079
H         50.34251       40.13487       26.40526
H         51.74883       39.35550       28.03401
H         51.62583       42.15762       25.91735
H         52.95495       41.19759       25.17292
H         51.31580       41.22386       24.41092
N         53.75065       38.76506       24.09623
C         55.14756       38.54266       23.75320
C         56.06625       39.23075       24.74813
O         56.35025       38.67485       25.79976
C         55.45059       37.02552       23.58329
C         54.51102       36.41318       22.51127
C         56.93129       36.78247       23.22019
C         54.56019       34.88606       22.45108
H         53.16811       39.21597       23.37428
H         55.31546       39.01094       22.75650
H         55.23930       36.53845       24.54910
H         54.75070       36.83873       21.51211
H         53.45809       36.67284       22.74646
H         57.60534       37.19853       23.99560
H         57.16005       35.69981       23.15944
H         57.17863       37.25869       22.24777
H         53.83428       34.52943       21.68994
H         55.56245       34.51385       22.16309
H         54.27404       34.45842       23.43621
N         56.61586       40.43286       24.43462
C         57.63645       41.08611       25.24180
C         57.22253       42.46876       25.73007
O         58.06469       43.12850       26.31855
C         58.95795       41.12115       24.42809
C         58.86246       41.94284       23.13558
O         59.33583       39.81065       24.09014
H         56.33266       40.88115       23.55147
H         57.85314       40.49672       26.15816
H         59.76269       41.58152       25.04684
H         59.62344       39.36613       24.92997
H         59.84339       41.92906       22.61611
H         58.11520       41.51794       22.43452
H         58.59530       42.99677       23.35716
N         55.96141       42.97101       25.54871
C         55.55314       44.30598       26.00060
C         55.66616       44.38288       27.52423
O         54.75004       43.93494       28.19786
C         54.10002       44.59503       25.51429
C         53.64181       46.02602       25.80482
O         54.02167       44.37767       24.12756
H         55.26543       42.38759       25.06384
H         56.23306       45.04817       25.52624
H         53.41915       43.88069       26.03671
H         53.07805       44.14031       23.92371
H         52.59426       46.15372       25.45282
H         53.67339       46.24798       26.89055
H         54.28375       46.74934       25.25885
N         56.81676       44.83107       28.12441
C         57.10900       44.73858       29.56011
C         57.11377       43.29194       30.02907
O         56.13729       42.58153       29.84278
C         56.18215       45.60704       30.42444
C         56.45080       47.09757       30.17826
C         55.58411       47.97336       31.08549
C         55.93044       49.45591       30.89944
N         55.06468       50.30086       31.71968
H         57.56819       45.20291       27.52450
H         58.13845       45.12831       29.73129
H         56.41997       45.40452       31.49376
H         55.11573       45.35302       30.25568
H         56.25190       47.35007       29.11439
H         57.52227       47.30740       30.40004
H         55.75542       47.69794       32.15022
H         54.51483       47.80010       30.83760
H         55.80911       49.73807       29.83041
H         56.99265       49.62579       31.18876
H         55.17080       50.05528       32.73080
H         55.33458       51.30151       31.58229
H         54.06798       50.17615       31.42803
N         58.19759       42.78718       30.68180
C         58.28982       41.38274       31.04958
C         58.40907       40.54898       29.78125
O         57.54885       39.70450       29.57992
C         59.42702       41.12284       32.05925
C         59.15129       41.83497       33.39402
C         60.25378       41.57928       34.37892
O         60.89814       42.51102       34.83351
O         60.53075       40.32217       34.77478
H         58.98251       43.41532       30.91190
H         57.35733       41.08095       31.58256
H         60.40067       41.46807       31.67400
H         59.48790       40.02823       32.25146
H         58.19542       41.46738       33.82703
H         59.05851       42.92968       33.22590
N         59.37786       40.72458       28.83232
C         60.47092       41.67010       28.88337
H         61.06183       41.59865       27.94508
H         60.09562       42.70789       28.96235
H         61.16560       41.42455       29.70550
H         59.32454       40.15607       27.98182
Ca        56.09279       37.01608       28.46833
O         55.11828       40.09119       27.94682
H         54.77278       40.82947       27.38543
H         54.93203       40.37372       28.87630
O         54.88422       38.49173       30.99547
H         55.65338       38.05257       31.43813
H         54.12325       37.87813       31.15266
O         57.50969       35.23713       30.55343
H         57.21095       34.46797       30.00694
H         58.09011       35.75917       29.94499

Ca 1.0



