%chk=apoCaM-CA-Ng.loop3.water4.frame300.chk
%nprocshared=20
%mem=10GB
%nosave
#b3lyp/svp scf=(tight,noincore,xqc) Test 
#IOP(5/87=12) Density=Current Pop=(MK,readradii) iop(6/33=2) iop(6/42=6)

apoCaM-CA-Ng.loop3.water4.frame300 

   0  1 
C         90.05680       28.04027       33.70452
C         91.35061       27.93832       34.46016
O         92.39314       27.81281       33.83516
H         89.19182       28.15290       34.39329
H         90.08514       28.92218       33.03181
H         89.90414       27.12111       33.10134
N         91.35047       27.97414       35.82209
C         92.53588       27.87174       36.66498
C         93.24113       26.53375       36.46027
O         94.45730       26.50160       36.32942
C         93.45431       29.09956       36.44644
C         94.58550       29.17925       37.43324
O         95.74254       29.17233       37.04314
O         94.32776       29.28772       38.75015
H         90.44537       28.07095       36.30859
H         92.17639       27.89598       37.71869
H         92.85221       30.02747       36.55368
H         93.86880       29.07108       35.41712
N         92.52075       25.37610       36.40475
C         93.14247       24.06414       36.24728
C         93.20884       23.60697       34.80038
O         93.78548       22.55146       34.56885
C         92.36845       23.00895       37.06066
C         92.45282       23.22340       38.57432
C         91.69148       22.09996       39.29179
C         91.89772       22.14796       40.80816
N         91.18972       21.04484       41.45840
H         91.49045       25.43116       36.42959
H         94.19678       24.09771       36.60153
H         92.80310       22.00660       36.85067
H         91.30435       22.99816       36.73195
H         92.03159       24.21159       38.86238
H         93.52451       23.18959       38.86881
H         92.06527       21.11717       38.92905
H         90.60746       22.17662       39.05181
H         91.53218       23.11701       41.21302
H         92.98539       22.05951       41.02791
H         91.38144       21.07061       42.48554
H         90.15996       21.13634       41.30027
H         91.52233       20.12826       41.07815
N         92.65079       24.30688       33.77191
C         92.70408       23.81235       32.39784
C         94.14828       23.77777       31.89058
O         95.02145       24.38500       32.49601
C         91.74166       24.65173       31.52254
C         91.50798       24.12687       30.13476
O         90.29280       23.65502       29.79828
O         92.38510       24.17589       29.29113
H         92.13232       25.17310       33.97273
H         92.31067       22.77006       32.41652
H         92.07425       25.71052       31.47087
H         90.75401       24.63122       32.03498
N         94.47697       23.00964       30.81656
C         95.82691       22.85385       30.29891
C         96.40302       24.13852       29.75800
O         97.52646       24.47663       30.10407
H         93.73770       22.45648       30.36044
H         95.79053       22.13390       29.45411
H         96.49407       22.42244       31.07745
N         95.69351       24.89153       28.87133
C         96.22985       26.07305       28.19771
C         96.69813       27.18085       29.13927
O         97.31059       28.11491       28.63880
C         95.17861       26.66003       27.22194
C         94.72124       25.66771       26.17986
N         95.58932       25.16134       25.27460
O         93.54831       25.32665       26.14720
H         94.74677       24.57188       28.62664
H         97.12186       25.74446       27.62010
H         95.59123       27.54620       26.69248
H         94.29935       26.99421       27.81679
H         96.57900       25.44611       25.27592
H         95.26742       24.48805       24.56337
N         96.46505       27.17209       30.48775
C         96.94609       28.22440       31.37188
C         96.36981       29.54712       30.95560
O         97.12594       30.43893       30.59446
H         95.92422       26.41044       30.91634
H         98.05777       28.25811       31.33073
H         96.64353       28.00827       32.41868
N         95.01977       29.71370       30.91882
C         94.38524       30.88873       30.34074
C         93.62209       30.47910       29.10022
O         93.38978       29.29645       28.88435
C         93.46657       31.57732       31.36588
C         94.25783       32.16118       32.51194
C         94.09453       31.67672       33.81895
C         95.16276       33.21175       32.27969
C         94.83260       32.22596       34.87399
C         95.89412       33.76342       33.33455
C         95.73313       33.27007       34.63651
O         96.43369       33.79240       35.66353
H         94.41621       28.93982       31.24014
H         95.15693       31.61032       29.99549
H         92.72561       30.83073       31.73063
H         92.90093       32.40597       30.88741
H         93.39903       30.87342       34.01781
H         95.29703       33.60995       31.28193
H         94.70412       31.84285       35.87804
H         96.58374       34.57477       33.13808
H         97.06284       34.51791       35.54072
N         93.29967       31.42369       28.17747
C         92.68397       31.11861       26.89395
C         93.75011       31.30456       25.82228
O         94.06091       30.33830       25.14052
C         91.41190       31.98732       26.69707
C         90.40732       31.83297       27.87529
C         90.72061       31.68728       25.35625
C         89.82775       30.42503       28.06459
H         93.57060       32.40154       28.36562
H         92.37328       30.05081       26.85077
H         91.72264       33.05557       26.68388
H         89.56064       32.53570       27.71758
H         90.90402       32.13172       28.82363
H         90.40950       30.62489       25.28838
H         89.82782       32.33679       25.23436
H         91.39850       31.88966       24.50913
H         90.62412       29.68381       28.27698
H         89.13099       30.43048       28.92908
H         89.25296       30.10356       27.17262
N         94.42666       32.48492       25.68376
C         95.59512       32.61897       24.80918
C         95.27168       32.56003       23.32123
O         96.20741       32.47898       22.53728
C         96.36340       33.90960       25.12483
O         96.75049       33.90412       26.47210
H         94.17555       33.27027       26.30228
H         96.27986       31.77067       25.04051
H         95.71227       34.78831       24.92103
H         97.27380       33.95677       24.48451
H         97.28727       34.72674       26.61006
N         93.98971       32.56384       22.85369
C         93.62126       32.37274       21.45335
C         94.15964       31.03652       20.96861
O         94.81268       30.95757       19.93719
C         94.06362       33.56021       20.58641
H         93.21687       32.65017       23.52317
H         92.51047       32.32313       21.40338
H         93.62046       34.49841       20.98259
H         95.16767       33.66712       20.57357
H         93.71106       33.42124       19.54224
N         93.96752       29.94448       21.75431
C         94.51455       28.62368       21.49458
C         93.43326       27.59919       21.73016
O         92.82932       27.65909       22.78985
C         95.66288       28.37012       22.47614
H         93.46934       30.07995       22.64693
H         94.93838       28.54133       20.46933
H         96.09583       27.36107       22.30504
H         96.46226       29.12574       22.31931
H         95.31591       28.43711       23.52962
N         93.17757       26.60450       20.82624
C         92.18571       25.53854       20.99932
C         90.79930       26.00354       20.57957
O         90.24080       25.40082       19.67220
C         92.24611       24.90693       22.41149
C         91.36300       23.66795       22.58482
C         91.51490       23.16655       23.99230
O         90.47178       23.21103       24.83973
O         92.60075       22.77725       24.39382
H         93.77751       26.55069       19.98905
H         92.46447       24.72327       20.29207
H         91.91259       25.62502       23.18488
H         93.30312       24.62301       22.61439
H         91.64873       22.86931       21.86750
H         90.30168       23.94738       22.40914
N         90.18291       27.07249       21.15523
C         88.87940       27.52648       20.72025
H         88.12284       26.73398       20.89924
H         88.58661       28.43769       21.28381
H         88.90531       27.77672       19.63733
H         90.64364       27.60048       21.90424
Ca        90.85763       22.80078       27.02105
O         93.82581       22.04616       27.42686
H         93.72542       21.29137       28.05997
H         94.71622       21.91075       27.01605
O         90.66913       26.17536       26.68012
H         90.11938       26.71262       27.30416
H         90.96359       26.82062       25.98893
O         90.78871       19.85676       26.88875
H         89.99570       20.22599       27.35350
H         90.63786       20.07103       25.93363
O         87.93363       23.49583       27.43166
H         88.05211       23.95858       26.56437
H         88.21948       24.16117       28.10670

Ca 1.0



