%chk=apoCaM-CA-Ng.loop1.water3.frame1408.chk
%nprocshared=20
%mem=10GB
%nosave
#b3lyp/svp scf=(tight,noincore,xqc) Test 
#IOP(5/87=12) Density=Current Pop=(MK,readradii) iop(6/33=2) iop(6/42=6)

apoCaM-CA-Ng.loop1.water3.frame1408 

   0  1 
C         61.46213       57.28234      104.01116
C         61.71097       58.51380      103.19504
O         62.18175       58.40325      102.07149
H         60.37950       57.19948      104.23550
H         61.79537       56.37233      103.46820
H         62.02988       57.35012      104.96438
N         61.46255       59.73931      103.73514
C         61.77492       60.99210      103.06478
C         63.08038       61.49960      103.63626
O         63.13586       62.56105      104.24265
C         60.62455       62.01069      103.21816
C         59.35720       61.56425      102.54149
O         58.74994       60.42312      102.91564
O         58.85519       62.25094      101.66527
H         61.13396       59.78564      104.71199
H         61.95175       60.83713      101.97679
H         60.94209       62.97876      102.76826
H         60.41975       62.18415      104.29563
N         64.20419       60.76268      103.41969
C         65.54068       61.16122      103.83267
C         65.88179       62.54552      103.30156
O         66.33235       63.34716      104.10813
C         66.59067       60.09033      103.44435
C         66.33167       58.78712      104.23234
C         67.31620       57.66315      103.89382
C         67.00208       56.42100      104.74726
N         67.86960       55.29743      104.39923
H         64.10658       59.89127      102.87928
H         65.56986       61.22885      104.94416
H         67.60579       60.45620      103.71624
H         66.57067       59.90252      102.34917
H         65.30857       58.41118      104.02327
H         66.40390       59.01167      105.31981
H         68.35889       57.99402      104.09379
H         67.21888       57.40866      102.81616
H         65.94267       56.11696      104.59086
H         67.13557       56.66983      105.82446
H         68.87272       55.55438      104.54250
H         67.63534       54.48461      105.01474
H         67.71044       55.02052      103.40333
N         65.62503       62.99213      102.03544
C         65.03252       62.24554      100.92297
C         63.62848       62.76330      100.61132
O         63.15172       63.67320      101.27328
C         65.94831       62.35767       99.69485
C         66.19597       63.79531       99.35707
O         65.15300       64.62696       99.13000
O         67.32007       64.23393       99.48494
H         65.82775       63.99025      101.86608
H         64.93657       61.17153      101.15327
H         65.51229       61.84114       98.81802
H         66.91371       61.85382       99.92190
N         62.89193       62.17674       99.62701
C         61.51077       62.51711       99.32047
C         61.29506       63.87164       98.67184
O         62.23049       64.62743       98.48358
H         63.30089       61.38178       99.11432
H         60.89915       62.43354      100.23593
H         61.13697       61.76593       98.59082
N         60.04061       64.17793       98.22753
C         59.67370       65.35197       97.41532
C         58.29633       65.13478       96.76801
O         57.54504       64.29605       97.24692
C         59.59834       66.65665       98.25313
C         60.90951       67.16661       98.75979
O         61.79940       67.46421       97.97821
O         61.07812       67.37634      100.07790
H         59.33506       63.44478       98.38986
H         60.40779       65.43118       96.58825
H         58.89925       66.50375       99.10480
H         59.18157       67.47916       97.64510
N         57.83949       65.83909       95.68765
C         58.55816       66.84014       94.91308
C         59.69705       66.25068       94.12472
O         59.46121       65.32118       93.36468
H         56.87833       65.63432       95.37022
H         58.88045       67.68929       95.54024
H         57.85515       67.25384       94.15747
N         60.95424       66.77511       94.21850
C         62.07533       66.29019       93.42493
C         63.13313       65.63590       94.34279
O         63.75559       66.55824       95.19752
C         62.64147       67.38968       92.47107
C         63.02238       68.72226       93.13752
O         61.73527       67.63585       91.42485
H         61.12071       67.55248       94.87443
H         61.72945       65.47109       92.75882
H         63.56184       66.98271       91.99759
H         60.91474       68.03081       91.81763
H         62.12910       69.21593       93.57425
H         63.78233       68.58888       93.92438
H         63.45079       69.40767       92.37546
N         64.12264       64.87067       93.55579
C         64.64560       63.68639       94.26865
C         65.95715       64.06803       94.93386
O         66.15991       65.22607       95.26743
C         63.56471       62.94891       95.15262
C         62.41228       62.42767       94.24251
C         64.17823       61.79963       95.96227
C         61.19861       61.88152       94.99816
H         63.69739       64.52693       92.66390
H         64.95637       62.95386       93.48780
H         63.14346       63.66005       95.89373
H         62.80479       61.64297       93.55910
H         62.02064       63.25104       93.61444
H         63.42045       61.32431       96.61728
H         64.61397       61.03072       95.29216
H         64.96816       62.19559       96.62850
H         61.45554       61.00222       95.61975
H         60.75648       62.67560       95.63679
H         60.42961       61.55866       94.26286
N         66.97250       63.16495       95.01324
C         68.29255       63.53798       95.51058
C         69.07477       64.39763       94.51832
O         70.17228       64.80210       94.86594
C         69.09171       62.30475       95.99635
C         69.41586       61.28538       94.90168
O         68.37526       61.65883       97.01719
H         66.80371       62.20594       94.68041
H         68.15022       64.15620       96.42225
H         70.06929       62.65529       96.40478
H         68.47716       62.21493       97.83438
H         70.02628       60.46752       95.34066
H         68.49875       60.82595       94.48215
H         69.99556       61.75881       94.08323
N         68.57483       64.73239       93.28879
C         69.23202       65.63416       92.33893
C         69.34644       67.03127       92.95186
O         68.44285       67.83329       92.76452
C         68.43059       65.66568       90.99729
C         68.44980       64.29127       90.30415
O         67.09894       66.05472       91.24152
H         67.66479       64.34417       93.01259
H         70.25283       65.26146       92.10031
H         68.91300       66.40379       90.31594
H         66.64219       66.12692       90.36282
H         67.89555       64.34127       89.34255
H         69.49413       63.98509       90.08746
H         67.97051       63.51056       90.93060
N         70.41415       67.36457       93.74684
C         70.54761       68.61472       94.50119
C         69.45868       68.73521       95.54814
O         68.28519       68.62821       95.22404
C         70.60708       69.85115       93.59492
C         71.87333       69.81564       92.73205
C         71.95182       71.04000       91.82288
C         73.26321       71.04016       91.02990
N         73.29968       72.15845       90.09044
H         71.17997       66.68427       93.85061
H         71.51649       68.58872       95.04997
H         70.66069       70.75781       94.23943
H         69.69763       69.93415       92.96646
H         71.88084       68.89743       92.10508
H         72.76280       69.79633       93.40215
H         71.89989       71.96924       92.43270
H         71.08752       71.01885       91.12432
H         73.36401       70.08722       90.46444
H         74.11941       71.11984       91.73785
H         72.53586       72.04908       89.38403
H         73.18311       73.06457       90.59942
H         74.22048       72.15949       89.59580
N         69.78351       68.96774       96.85154
C         68.77991       68.94012       97.90428
C         68.27052       67.51777       98.02649
O         67.07836       67.32494       97.83803
C         69.29606       69.50314       99.24864
C         69.68203       70.98403       99.11034
C         70.17576       71.53825      100.41401
O         69.37130       71.55013      101.49391
O         71.30651       71.99032      100.49863
H         70.76875       69.14252       97.09829
H         67.93242       69.60517       97.61564
H         70.16245       68.94032       99.63985
H         68.47900       69.42032      100.00013
H         68.79782       71.57300       98.78302
H         70.47842       71.09603       98.34367
N         69.06829       66.43738       98.27774
C         70.49370       66.41192       98.52643
H         70.98317       67.39016       98.46375
H         70.67264       65.99239       99.54015
H         70.97815       65.74869       97.78108
H         68.62960       65.51940       98.26920
Ca        64.44589       65.56550       97.17996
O         65.22203       68.81904       96.21655
H         65.65419       68.45085       95.40584
H         64.99165       69.75123       95.97815
O         63.94273       66.62514      100.74241
H         63.61410       67.49872      101.06946
H         63.12628       66.07518      100.65326
O         64.62842       68.99642       99.01488
H         65.34740       69.36914       99.58435
H         63.80173       69.44075       99.33015

Ca 1.0



