%chk=apoCaM-CA-Ng.loop2.water5.frame1445.chk
%nprocshared=20
%mem=10GB
%nosave
#b3lyp/svp scf=(tight,noincore,xqc) Test 
#IOP(5/87=12) Density=Current Pop=(MK,readradii) iop(6/33=2) iop(6/42=6)

apoCaM-CA-Ng.loop2.water5.frame1445 

   -2  1 
C         67.31937       92.12623      124.29440
C         67.88713       91.91085      122.91641
O         68.47436       90.86258      122.69229
H         66.21818       92.25620      124.23371
H         67.52856       91.25196      124.94705
H         67.78013       93.02318      124.75945
N         67.77298       92.83267      121.91503
C         67.09843       94.12411      122.05169
C         68.04424       95.31121      121.89391
O         67.62101       96.41888      122.19490
C         65.87878       94.20785      121.10430
C         66.16722       94.08000      119.62725
O         67.41341       93.89038      119.15997
O         65.24161       94.13455      118.83434
H         68.19227       92.58536      121.00739
H         66.69519       94.22683      123.07813
H         65.36059       95.17638      121.27418
H         65.17478       93.39225      121.37792
N         69.32766       95.17397      121.44972
C         70.28805       96.27242      121.40113
C         70.59502       96.69908      119.97486
O         71.53095       97.46422      119.78329
C         71.56540       95.82252      122.12214
H         69.66078       94.25467      121.12705
H         69.90917       97.17424      121.93006
H         72.01507       94.94561      121.60741
H         72.31357       96.64367      122.14460
H         71.33051       95.54065      123.17052
N         69.81085       96.31144      118.92746
C         70.09006       96.70316      117.55019
C         68.90956       96.50243      116.60470
O         67.87169       95.98063      116.98559
C         71.37816       96.01286      117.03468
C         71.59814       94.59771      117.53685
O         70.73326       93.57921      117.34203
O         72.61476       94.36488      118.17204
H         68.97427       95.75083      119.11771
H         70.23271       97.80756      117.51919
H         72.24065       96.60830      117.40775
H         71.43544       96.05440      115.92700
N         68.99271       97.03609      115.35204
C         67.91172       97.06123      114.38512
C         67.68046       95.73351      113.70010
O         67.23433       94.79523      114.33956
H         69.84505       97.56036      115.10123
H         68.18128       97.80684      113.60706
H         66.97441       97.42982      114.85721
N         67.94568       95.60376      112.36618
C         67.57307       94.43630      111.56768
C         68.75994       93.54483      111.23706
O         69.88778       93.86446      111.58611
C         66.88650       94.89580      110.24774
C         67.85025       95.55159      109.26790
N         68.15285       94.95206      108.09087
O         68.36929       96.62328      109.53897
H         68.39418       96.39727      111.89101
H         66.84656       93.81909      112.13958
H         66.04062       95.58291      110.46239
H         66.44483       94.00600      109.75404
H         67.74368       94.04196      107.83504
H         68.81808       95.39183      107.43660
N         68.55415       92.41422      110.49874
C         69.61495       91.56593      109.98627
C         70.32086       90.75526      111.04599
O         69.97457       90.86211      112.21270
H         67.59467       92.17703      110.20828
H         70.33860       92.19871      109.42990
H         69.16217       90.83646      109.28080
N         71.32666       89.88527      110.73367
C         71.85385       89.65856      109.38564
C         71.67235       88.21363      108.93365
O         71.30114       88.02140      107.78633
C         73.34016       90.06622      109.29653
C         73.53222       91.55963      109.58590
O         74.11469       89.30295      110.18461
H         71.76307       89.37089      111.51394
H         71.33842       90.28959      108.63162
H         73.66779       89.87784      108.24474
H         75.03013       89.26052      109.80159
H         72.92876       92.16965      108.87918
H         73.22655       91.80465      110.62467
H         74.60003       91.83443      109.45476
N         71.93625       87.15703      109.75970
C         71.85640       85.74700      109.36297
C         70.74805       85.03751      110.15400
O         70.81982       85.06013      111.37397
C         73.25321       85.05197      109.53541
C         73.15195       83.55703      109.12295
C         73.86298       85.20850      110.94820
C         74.48656       82.80991      109.10870
H         72.20092       87.36115      110.73098
H         71.64576       85.66473      108.28496
H         73.95284       85.55799      108.83248
H         72.73353       83.49874      108.09562
H         72.46281       83.01922      109.80760
H         73.24477       84.71432      111.72305
H         74.88186       84.77633      110.98906
H         74.00308       86.27499      111.21247
H         75.19820       83.30408      108.41502
H         74.93237       82.74947      110.12185
H         74.31635       81.76792      108.76426
N         69.71041       84.33693      109.58276
C         69.43607       84.19353      108.15129
C         68.41236       83.09141      107.86247
O         67.32177       83.11110      108.41497
C         68.94796       85.52542      107.52021
C         67.78204       86.18448      108.21500
O         67.92323       87.28937      108.71542
O         66.57016       85.60165      108.24696
H         69.07625       83.84443      110.23099
H         70.36843       83.89300      107.62849
H         68.69554       85.35895      106.45013
H         69.76839       86.24810      107.52215
N         68.68024       82.15236      106.90506
C         67.68231       81.23004      106.36872
C         68.20007       79.79663      106.33288
O         69.26814       79.59447      105.76664
C         67.39151       81.64947      104.90852
C         66.31899       80.78796      104.28392
C         66.63915       79.87930      103.26015
C         64.99064       80.87688      104.73250
C         65.64707       79.06491      102.70580
C         64.00060       80.06633      104.17013
C         64.32896       79.15859      103.16004
H         69.59835       82.17646      106.43384
H         66.73001       81.30786      106.92849
H         68.33704       81.56816      104.32573
H         67.07082       82.71259      104.85912
H         67.65736       79.78803      102.90275
H         64.72335       81.57278      105.51793
H         65.90089       78.35853      101.92602
H         62.97944       80.13974      104.52061
H         63.56225       78.52757      102.72984
N         67.47587       78.72411      106.78340
C         66.17801       78.75968      107.44752
C         66.21923       79.46900      108.77798
O         65.31868       80.24144      109.07503
C         65.84693       77.27684      107.67678
C         66.51592       76.62665      106.48992
C         67.85415       77.35685      106.48299
H         65.41845       79.19445      106.76546
H         66.37830       76.89258      108.57821
H         64.76188       77.06601      107.79533
H         66.59043       75.51982      106.53647
H         65.94598       76.91227      105.57424
H         68.52547       76.98241      107.28698
H         68.32675       77.23557      105.48361
N         67.25478       79.24405      109.63295
C         67.31703       79.80275      110.97306
C         66.33732       79.03915      111.85320
O         66.48886       77.83017      111.96539
C         68.74300       79.66399      111.54946
C         69.75869       80.51016      110.76203
C         71.13906       80.36335      111.33192
O         71.77760       81.43390      111.84131
O         71.69314       79.27557      111.32856
H         68.02874       78.63970      109.31516
H         67.09561       80.89024      110.93270
H         69.05020       78.59412      111.54001
H         68.74280       80.02020      112.60361
H         69.45438       81.57635      110.81705
H         69.78420       80.21037      109.69263
N         65.30406       79.62909      112.51565
C         65.02024       81.04516      112.47173
H         64.13116       81.26701      113.09932
H         65.88387       81.61836      112.86934
H         64.79880       81.36013      111.43145
H         64.68521       79.03449      113.08915
Ca        68.67393       93.44520      116.43234
O         66.86522       91.46785      114.53589
H         66.43800       91.95216      113.78564
H         67.39044       90.75018      114.10067
O         64.72967       94.15929      115.58410
H         64.67566       94.44757      114.63804
H         64.95755       94.98484      116.08148
O         70.60659       92.68233      114.38301
H         70.76008       93.65846      114.44352
H         69.64974       92.59914      114.14096
O         69.51042       90.49445      117.27053
H         69.86020       90.30115      116.36461
H         70.28382       90.87134      117.76049
O         66.37501       90.99214      117.76352
H         65.41440       91.05638      117.99478
H         66.54095       90.02141      117.65972

Ca 1.0



