%chk=apoCaM-CA-Ng.loop1.water6.frame661.chk
%nprocshared=20
%mem=10GB
%nosave
#b3lyp/svp scf=(tight,noincore,xqc) Test 
#IOP(5/87=12) Density=Current Pop=(MK,readradii) iop(6/33=2) iop(6/42=6)

apoCaM-CA-Ng.loop1.water6.frame661 

   0  1 
C          8.34086       33.47212       97.37543
C          8.12755       31.98795       97.45085
O          7.47828       31.42313       96.58304
H          9.42912       33.68900       97.32571
H          7.84409       33.90409       96.48188
H          7.92169       33.95303       98.28555
N          8.64957       31.29775       98.49814
C          8.48892       29.86000       98.70979
C          7.65921       29.61603       99.95982
O          7.17001       30.57809      100.53636
C          9.87491       29.17186       98.75075
C         10.79244       29.62279       99.85897
O         10.40239       30.54533      100.75866
O         11.92007       29.16157       99.92450
H          9.16919       31.84096       99.20113
H          7.93074       29.39959       97.86496
H         10.38118       29.37448       97.78153
H          9.74659       28.07189       98.82929
N          7.41947       28.35033      100.41338
C          6.51457       28.06441      101.52294
C          7.22803       28.07061      102.87345
O          7.22035       27.06249      103.56652
C          5.75257       26.74378      101.27421
C          4.85747       26.82706      100.02939
C          4.04593       25.53971       99.85370
C          3.09856       25.64948       98.65291
N          2.31831       24.42351       98.49042
H          7.81318       27.55374       99.89067
H          5.73253       28.84962      101.56939
H          5.09367       26.54964      102.15030
H          6.47014       25.89844      101.17942
H          5.47642       27.00361       99.12322
H          4.15378       27.67964      100.14943
H          3.44194       25.35784      100.77019
H          4.73933       24.68273       99.70671
H          3.68761       25.83677       97.72784
H          2.40454       26.50627       98.80761
H          2.95573       23.61285       98.31600
H          1.74619       24.24449       99.34773
H          1.67624       24.53254       97.67257
N          7.77954       29.22389      103.34974
C          8.32186       29.38499      104.69834
C          8.63398       30.86327      104.94049
O          9.33607       31.44502      104.12568
C          9.54180       28.46445      104.98255
C         10.77288       28.71588      104.15842
O         11.19312       27.85366      103.40342
O         11.48271       29.84409      104.33249
H          7.73137       30.05816      102.75411
H          7.53847       29.06227      105.41124
H          9.23589       27.40813      104.84484
H          9.82972       28.56805      106.05144
N          8.17726       31.56818      106.01947
C          7.43419       30.99724      107.13007
C          5.96658       30.73395      106.86134
O          5.33485       30.15633      107.73400
H          8.47716       32.55160      106.11160
H          7.46375       31.70732      107.98432
H          7.94859       30.07104      107.46356
N          5.33398       31.15981      105.73049
C          3.90772       30.94014      105.48468
C          3.71770       30.15016      104.20888
O          4.69739       29.78286      103.58007
C          3.17731       32.29819      105.41752
C          3.24492       33.01383      106.73690
O          2.71711       32.44561      107.83908
O          3.75841       34.11772      106.81433
H          5.86498       31.68540      105.01921
H          3.43988       30.34137      106.29661
H          2.09994       32.15543      105.19355
H          3.61513       32.92434      104.60924
N          2.46620       29.86327      103.75595
C          2.20979       29.12903      102.53563
C          1.82254       30.09291      101.45216
O          0.69293       30.04889      100.98615
H          1.64486       30.21313      104.26997
H          1.40798       28.38372      102.73309
H          3.10137       28.56502      102.18880
N          2.75162       30.96764      100.96423
C          2.48855       31.84930       99.83298
C          3.15182       33.21639       99.98825
O          3.95601       33.42033      100.88733
C          2.96820       31.15888       98.52246
C          4.47042       30.83892       98.52514
O          2.26665       29.95770       98.33105
H          3.71578       30.90417      101.32533
H          1.39389       32.02752       99.75037
H          2.78508       31.82839       97.65084
H          1.36759       30.20094       97.98752
H          5.07557       31.76114       98.65006
H          4.72116       30.12628       99.33825
H          4.75588       30.36470       97.56213
N          2.87606       34.18794       99.06958
C          3.59332       35.46310       98.96852
C          3.37956       36.36923      100.18581
O          4.14262       37.31548      100.32781
C          3.19566       36.19788       97.62942
C          3.51625       35.30781       96.38762
C          3.88966       37.57079       97.46904
C          2.97173       35.86710       95.06840
H          2.15917       33.96535       98.36572
H          4.67933       35.22184       98.91704
H          2.09734       36.37644       97.66155
H          3.05175       34.30886       96.48566
H          4.61348       35.15246       96.30263
H          3.57302       38.08414       96.54207
H          3.59890       38.27598       98.26963
H          4.99406       37.45097       97.45691
H          3.17636       35.14540       94.24999
H          1.87233       36.01338       95.14025
H          3.45324       36.82317       94.78673
N          2.38380       36.17079      101.09870
C          2.13284       37.10015      102.20528
C          0.72154       37.66781      102.11705
O         -0.02532       37.27913      101.22722
C          2.41825       36.41988      103.56473
C          1.50044       35.23106      103.86052
O          3.75735       35.99374      103.58315
H          1.75500       35.36145      100.99336
H          2.81971       37.97312      102.14424
H          2.26332       37.18369      104.36222
H          4.06474       36.02800      104.52660
H          1.73798       34.82971      104.86683
H          0.43724       35.54925      103.86070
H          1.64530       34.42023      103.11731
N          0.29215       38.60492      103.01362
C         -1.04523       39.18745      102.99095
C         -0.93896       40.69741      102.80275
O         -1.38321       41.19440      101.77790
C         -1.82735       38.75152      104.26342
C         -3.26372       39.27544      104.27524
O         -1.18792       39.16627      105.44352
H          0.94111       38.92055      103.75012
H         -1.61801       38.78686      102.12421
H         -1.90122       37.63745      104.26049
H         -0.49761       38.48677      105.66131
H         -3.27901       40.38559      104.29408
H         -3.81306       38.91565      103.37998
H         -3.78766       38.90214      105.18178
N         -0.36794       41.48647      103.75699
C         -0.20235       42.93126      103.64832
C          1.24668       43.27258      103.93779
O          1.77819       42.79615      104.93239
C         -1.14781       43.63184      104.64262
C         -1.03902       45.16574      104.54856
C         -2.07403       45.85927      105.44070
C         -1.93134       47.38626      105.35997
N         -2.93340       48.05120      106.19215
H         -0.04143       41.04956      104.62838
H         -0.48739       43.29707      102.63624
H         -0.93682       43.30146      105.68306
H         -2.18894       43.33429      104.38476
H         -1.20778       45.48552      103.49609
H         -0.01876       45.48302      104.85627
H         -1.93481       45.53436      106.49450
H         -3.09465       45.56851      105.10699
H         -2.05423       47.71955      104.30513
H         -0.91472       47.68158      105.70381
H         -2.82077       47.76337      107.19129
H         -2.80496       49.08657      106.12154
H         -3.89476       47.80690      105.86018
N          1.93994       44.13389      103.14195
C          3.33907       44.45355      103.40145
C          4.22637       43.25201      103.09817
O          4.89557       42.80632      104.01943
C          3.81555       45.72488      102.66192
C          3.06949       46.97342      103.16108
C          3.58570       48.21290      102.48983
O          4.87888       48.56632      102.62315
O          2.83365       48.91401      101.83232
H          1.44457       44.60134      102.36783
H          3.44994       44.70161      104.48338
H          3.70344       45.64186      101.56437
H          4.89782       45.86358      102.88237
H          3.21810       47.08509      104.25761
H          1.98058       46.86861      102.96546
N          4.32526       42.64316      101.87685
C          3.59168       42.98852      100.67480
H          2.87008       43.80632      100.80858
H          4.30811       43.27981       99.87844
H          3.01800       42.10262      100.33179
H          4.97712       41.84806      101.78936
Ca        11.86758       31.51166      102.16827
O         12.14281       32.84833       99.46021
H         12.00567       33.70968       98.99231
H         12.88982       32.41542       98.97564
O         12.22862       34.70851      102.56586
H         12.64720       35.34238      101.93089
H         11.41772       35.17754      102.88689
O         13.95206       32.12138      104.17179
H         13.95439       31.45058      104.89993
H         14.61610       32.79961      104.45188
O          9.50488       33.57923      101.34668
H          9.59373       34.38340      100.77578
H          8.56327       33.29535      101.23291
O         14.74893       30.76498      101.31609
H         14.71369       29.93382      101.85307
H         14.06037       30.63695      100.61665
O         11.34186       33.29566      105.31429
H         11.17288       32.51777      105.90330
H         10.70072       33.98474      105.62128

Ca 1.0



