%chk=apoCaM-CA-Ng.loop3.water5.frame1051.chk
%nprocshared=20
%mem=10GB
%nosave
#b3lyp/svp scf=(tight,noincore,xqc) Test 
#IOP(5/87=12) Density=Current Pop=(MK,readradii) iop(6/33=2) iop(6/42=6)

apoCaM-CA-Ng.loop3.water5.frame1051 

   0  1 
C         50.33878       74.08014       39.02347
C         51.17484       75.31724       38.91224
O         51.06038       76.19157       39.75983
H         49.69499       73.98599       38.12498
H         51.00134       73.19181       39.09682
H         49.69624       74.12076       39.92878
N         52.06742       75.44086       37.89054
C         52.95327       76.59225       37.74208
C         52.80358       77.31492       36.40734
O         53.34339       78.40418       36.30432
C         54.40460       76.15516       38.02201
C         54.95188       75.08327       37.11292
O         54.33184       74.67945       36.14167
O         56.14534       74.53776       37.40299
H         52.14613       74.65530       37.22861
H         52.70177       77.34991       38.51598
H         54.42640       75.74785       39.05574
H         55.08104       77.03442       37.99337
N         52.05903       76.81785       35.37358
C         51.78253       77.54438       34.13092
C         52.90938       77.40982       33.09814
O         52.68620       76.86892       32.02372
C         50.39441       77.10115       33.58357
C         49.27722       77.54600       34.55419
C         47.84815       77.20150       34.10701
C         47.51227       75.70719       34.22594
N         46.10169       75.46993       33.91023
H         51.57354       75.92038       35.50593
H         51.68162       78.63316       34.34044
H         50.38169       76.00101       33.42346
H         50.20532       77.59817       32.60631
H         49.33437       78.65412       34.62651
H         49.44150       77.13142       35.57216
H         47.66986       77.56614       33.07190
H         47.15736       77.74641       34.78718
H         47.70282       75.37480       35.27134
H         48.15195       75.10756       33.54395
H         45.90225       75.73990       32.91994
H         45.88312       74.45559       34.03860
H         45.48920       76.02421       34.55328
N         54.13065       77.97319       33.33667
C         55.22940       78.05168       32.37509
C         56.49448       77.34886       32.87369
O         57.51845       77.44979       32.21221
C         55.48643       79.54484       32.05351
C         55.82222       80.37910       33.26313
O         55.08921       81.29829       33.59409
O         56.93327       80.12583       33.97943
H         54.28797       78.44526       34.23104
H         54.95622       77.56463       31.41387
H         54.56415       79.95527       31.58465
H         56.30819       79.64265       31.31237
N         56.49190       76.59339       34.00912
C         57.64793       75.88474       34.54674
C         58.19421       74.78986       33.64569
O         57.80127       74.71654       32.49063
H         55.61895       76.50346       34.54710
H         57.29980       75.39833       35.47189
H         58.46106       76.59475       34.80772
N         59.08003       73.84554       34.09458
C         59.54023       73.71023       35.47883
C         58.94451       72.43531       36.08399
O         58.54838       71.55821       35.32919
C         61.08023       73.64511       35.53554
C         61.73594       74.90061       35.02420
N         61.54465       76.08632       35.64862
O         62.46826       74.84195       34.04802
H         59.38494       73.12111       33.42494
H         59.20239       74.57052       36.07825
H         61.42160       72.77222       34.93591
H         61.42879       73.48675       36.57553
H         60.94535       76.15433       36.48399
H         62.00871       76.93919       35.30268
N         58.77853       72.25477       37.42926
C         59.11226       73.27010       38.41418
C         58.65841       72.94748       39.82093
O         58.15130       71.86808       40.09840
H         58.33571       71.37585       37.73981
H         58.57973       74.20383       38.14427
H         60.20254       73.46532       38.42521
N         58.75852       73.92952       40.75565
C         58.24526       73.81934       42.12175
C         58.05078       75.22415       42.71859
O         58.48724       76.19675       42.11326
C         59.22657       72.95361       42.94965
C         58.76719       72.62346       44.34748
C         59.27412       73.33757       45.44518
C         57.86050       71.57291       44.57179
C         58.87070       73.01834       46.74422
C         57.47224       71.24246       45.87551
C         57.97437       71.96832       46.96614
O         57.60928       71.66400       48.22811
H         59.14578       74.82526       40.42253
H         57.23591       73.35358       42.06938
H         60.19604       73.49670       42.99119
H         59.44252       71.99122       42.43482
H         59.97412       74.14895       45.29360
H         57.47265       70.99550       43.74135
H         59.26097       73.58515       47.57981
H         56.78607       70.42021       46.03788
H         57.00153       70.93802       48.42869
N         57.34839       75.43104       43.87129
C         57.11418       76.78852       44.38358
C         58.40424       77.53089       44.69923
O         59.47113       76.93501       44.75255
C         56.15883       76.85688       45.62061
C         54.68068       76.75226       45.18665
C         56.53576       75.85150       46.72885
C         53.70937       77.10569       46.31752
H         56.93159       74.61661       44.34030
H         56.65166       77.37467       43.55738
H         56.25466       77.87645       46.05304
H         54.45300       75.74741       44.77399
H         54.50375       77.50631       44.38685
H         55.94123       76.03299       47.64625
H         56.34067       74.80509       46.41680
H         57.60678       75.95293       47.00002
H         52.67142       77.12466       45.92557
H         53.75732       76.36500       47.13966
H         53.94275       78.11602       46.72202
N         58.34581       78.88582       44.87488
C         59.50005       79.73170       45.14385
C         59.70686       80.72822       44.01359
O         58.86165       80.82952       43.13516
C         59.29116       80.45516       46.48189
O         58.13874       81.25535       46.42078
H         57.42938       79.35241       44.78640
H         60.41817       79.10896       45.21077
H         60.16908       81.09212       46.72058
H         59.17747       79.68014       47.27506
H         57.85650       81.42153       47.35738
N         60.85482       81.46886       43.96043
C         61.20291       82.39017       42.87920
C         60.35999       83.65797       42.85064
O         60.51268       84.42257       41.90811
C         61.20585       81.66930       41.51950
H         61.55875       81.32827       44.70080
H         62.24887       82.73276       43.04364
H         61.60306       82.34349       40.73098
H         61.86462       80.77657       41.56962
H         60.19177       81.35263       41.20614
N         59.51311       83.99376       43.87071
C         58.75054       85.23712       43.92097
C         57.72920       85.28487       42.80630
O         57.77042       86.18612       41.97835
C         59.67988       86.46834       43.93755
H         59.41812       83.36440       44.67977
H         58.18289       85.26549       44.87754
H         59.07688       87.39508       44.05244
H         60.38195       86.40346       44.79480
H         60.26983       86.56848       43.00405
N         56.74476       84.34222       42.75800
C         55.69070       84.35159       41.75282
C         54.31753       84.60185       42.35875
O         53.37247       84.74215       41.59277
C         55.65804       83.01763       40.99563
C         56.96710       82.68966       40.27074
C         56.72153       81.50958       39.38113
O         56.72018       81.69527       38.04997
O         56.40321       80.42728       39.84919
H         56.73160       83.60253       43.47753
H         55.86488       85.17056       41.02007
H         54.85028       83.09076       40.23376
H         55.40352       82.18735       41.69246
H         57.79442       82.48866       40.98559
H         57.24958       83.55574       39.63410
N         54.10638       84.66211       43.70415
C         52.78798       84.89181       44.25335
H         52.08763       84.10254       43.90410
H         52.82868       84.86410       45.36243
H         52.41406       85.88692       43.93194
H         54.88090       84.52820       44.36810
Ca        55.60855       80.29721       36.67803
O         57.20076       77.98063       36.71693
H         57.31028       78.26079       37.65944
H         57.77438       78.60218       36.20207
O         57.04499       83.02289       35.57595
H         57.12103       83.33862       34.64140
H         57.95290       83.13809       35.95441
O         54.13829       83.22912       37.59799
H         53.19635       83.53341       37.59232
H         54.65966       84.03671       37.83562
O         53.37303       80.15610       38.87143
H         53.74521       80.83691       39.48551
H         52.48328       79.94307       39.24895
O         52.27190       81.34565       35.89309
H         51.83723       82.10822       35.43486
H         51.63797       81.09356       36.61082

Ca 1.0



