%chk=apoCaM-CA-Ng.loop1.water3.frame78.chk
%nprocshared=20
%mem=10GB
%nosave
#b3lyp/svp scf=(tight,noincore,xqc) Test 
#IOP(5/87=12) Density=Current Pop=(MK,readradii) iop(6/33=2) iop(6/42=6)

apoCaM-CA-Ng.loop1.water3.frame78 

   0  1 
C         46.83429       53.61517       65.60658
C         45.52895       54.12919       66.14298
O         45.49662       54.66024       67.24361
H         47.66439       53.81747       66.31625
H         46.76054       52.51892       65.44602
H         47.06577       54.10696       64.63783
N         44.39959       54.01233       65.39262
C         43.09120       54.50365       65.82522
C         42.40933       53.60267       66.86398
O         41.28760       53.91721       67.24211
C         42.18757       54.76395       64.59574
C         41.82913       53.55767       63.76869
O         42.26046       52.32473       64.09613
O         41.13458       53.70359       62.77571
H         44.49715       53.61590       64.44522
H         43.22740       55.51166       66.27794
H         42.71038       55.49230       63.93588
H         41.24442       55.24217       64.93657
N         43.01774       52.50104       67.39690
C         42.41629       51.62761       68.40517
C         43.13972       51.78293       69.73522
O         44.36328       51.73837       69.72112
C         42.47195       50.15738       67.94881
C         41.41077       49.85815       66.88073
C         41.40649       48.36938       66.50705
C         40.15729       47.95834       65.70846
N         40.01729       48.69050       64.45046
H         43.97930       52.26908       67.10983
H         41.36138       51.85991       68.54904
H         42.22512       49.51262       68.82114
H         43.49618       49.88833       67.60859
H         41.57550       50.48395       65.97927
H         40.41767       50.11047       67.31196
H         41.39236       47.75911       67.43723
H         42.33496       48.12526       65.94671
H         39.25080       48.12507       66.33335
H         40.22389       46.86869       65.49418
H         40.86737       48.55739       63.85747
H         39.18241       48.32100       63.94046
H         39.85881       49.70707       64.63375
N         42.50900       51.91483       70.95105
C         41.06716       51.86734       71.23158
C         40.46145       50.54710       70.76508
O         39.69073       50.54946       69.81445
C         40.27902       53.09965       70.71852
C         40.71457       54.40292       71.31821
O         40.08887       55.41471       71.04826
O         41.76431       54.47517       72.15915
H         43.11762       51.99214       71.78104
H         40.91772       51.91103       72.33374
H         39.22477       52.94519       71.01602
H         40.28290       53.21823       69.62538
N         40.71950       49.35823       71.38061
C         41.48190       49.23998       72.61846
C         41.57522       47.80371       73.11674
O         41.14917       46.89616       72.41765
H         40.28261       48.51913       70.97104
H         40.95598       49.83860       73.38193
H         42.50976       49.63477       72.47999
N         42.13999       47.47876       74.31672
C         42.66652       48.43532       75.28471
C         41.57423       49.33486       75.85652
O         40.60228       48.83985       76.41105
C         43.42625       47.72300       76.43614
C         42.58710       46.82672       77.31443
O         42.47158       47.09756       78.62863
O         42.03813       45.83710       76.85839
H         42.21316       46.47341       74.53221
H         43.43525       49.05600       74.77358
H         43.88205       48.50840       77.07948
H         44.25786       47.12225       76.00807
N         41.72217       50.68752       75.80230
C         40.82058       51.64176       76.42703
C         39.48121       51.81000       75.74242
O         39.15691       51.10516       74.79779
H         42.57791       51.07050       75.37333
H         41.31026       52.63829       76.38530
H         40.67572       51.38356       77.49942
N         38.66369       52.80713       76.18821
C         37.35063       53.13511       75.63102
C         37.43089       53.47073       74.14397
O         38.47663       53.90225       73.67852
C         36.74557       54.32388       76.44149
C         35.31733       54.69900       76.04519
O         37.55546       55.46786       76.30526
H         39.00901       53.36344       76.98553
H         36.70169       52.24055       75.75511
H         36.69046       54.01689       77.51457
H         38.16936       55.50130       77.08500
H         35.27933       55.08139       75.00517
H         34.64401       53.82339       76.15081
H         34.95006       55.50994       76.71090
N         36.32096       53.34311       73.35615
C         36.27206       53.70929       71.94390
C         35.49494       55.00182       71.81589
O         34.34925       55.05382       72.24286
C         35.59946       52.59409       71.07954
C         36.36269       51.25153       71.19066
C         35.49963       53.05191       69.60429
C         35.68607       50.10119       70.43404
H         35.44584       53.01412       73.79197
H         37.29286       53.88388       71.55195
H         34.56554       52.43545       71.46057
H         36.41541       50.95319       72.25903
H         37.39731       51.37088       70.81071
H         34.92340       53.99477       69.51880
H         36.51093       53.21482       69.17408
H         34.95087       52.31966       68.98128
H         36.25132       49.16109       70.60183
H         34.64509       49.95979       70.79549
H         35.67126       50.27975       69.33967
N         36.05812       56.07630       71.19009
C         35.35842       57.33961       70.97839
C         35.12138       57.63270       69.49808
O         34.45639       58.61869       69.21298
C         36.13702       58.49886       71.65158
C         37.49881       58.77246       70.99328
O         36.34326       58.21327       73.01066
H         37.01841       55.98215       70.82836
H         34.35274       57.29063       71.45088
H         35.54676       59.44000       71.55714
H         35.46765       58.32022       73.46517
H         38.17215       57.89419       71.05802
H         37.37230       59.04272       69.92564
H         37.99625       59.62573       71.49913
N         35.63766       56.84329       68.50499
C         35.46254       57.07089       67.06924
C         36.11069       58.38513       66.62025
O         36.53851       59.17594       67.44921
C         33.96417       56.93599       66.66044
C         33.40163       55.56981       67.07720
O         33.82369       57.06157       65.26954
H         36.20161       56.02040       68.75531
H         36.02347       56.26445       66.54433
H         33.37774       57.73822       67.16190
H         32.87783       57.30577       65.09048
H         33.97764       54.75140       66.59324
H         33.44391       55.44142       68.17805
H         32.33938       55.48535       66.76382
N         36.26082       58.65377       65.29065
C         36.87822       59.87440       64.76552
C         38.36954       60.01044       65.08297
O         38.93900       61.03320       64.72563
C         36.67423       59.95330       63.23212
C         37.44276       58.86392       62.45655
C         37.12486       58.92855       60.95844
C         37.88013       57.86858       60.13723
N         37.52257       56.50020       60.52111
H         35.89265       57.96668       64.62160
H         36.33758       60.73919       65.21126
H         37.00322       60.95074       62.86512
H         35.58493       59.86231       63.02418
H         37.15662       57.86793       62.84119
H         38.53671       58.99783       62.60352
H         37.40925       59.93254       60.57407
H         36.03167       58.79401       60.80545
H         38.97794       58.01332       60.24459
H         37.61732       58.01900       59.06691
H         37.97539       55.83214       59.85686
H         37.87055       56.27944       61.48095
H         36.48583       56.36909       60.47625
N         39.07652       59.03505       65.72449
C         40.50846       59.13889       65.98575
C         41.28678       59.04222       64.68719
O         41.13176       58.06273       63.97033
C         40.97125       58.03603       66.96917
C         40.30224       58.10699       68.36519
C         40.59646       59.38009       69.12840
O         41.24100       59.35829       70.31338
O         40.20782       60.45462       68.70242
H         38.59369       58.18297       66.03594
H         40.73248       60.11458       66.45427
H         42.07293       58.10552       67.10613
H         40.74775       57.04133       66.52454
H         40.66785       57.24536       68.95816
H         39.20216       57.99576       68.26879
N         42.16330       60.02686       64.33703
C         42.95457       60.00518       63.12276
H         44.03314       59.99228       63.38756
H         42.73838       59.11985       62.48895
H         42.74421       60.92061       62.53114
H         42.29767       60.83071       64.96844
Ca        41.95103       57.52793       71.42591
O         43.26002       56.02868       69.26458
H         42.39651       55.60756       69.02892
H         43.77902       55.30072       69.68873
O         39.40263       57.20378       73.51941
H         39.12510       58.15367       73.49200
H         38.74668       56.77103       74.12105
O         42.27078       56.26112       74.62689
H         41.68197       55.65932       75.14825
H         43.08056       55.72067       74.44576

Ca 1.0



