%chk=apoCaM-CA-Ng.loop3.water3.frame884.chk
%nprocshared=20
%mem=10GB
%nosave
#b3lyp/svp scf=(tight,noincore,xqc) Test 
#IOP(5/87=12) Density=Current Pop=(MK,readradii) iop(6/33=2) iop(6/42=6)

apoCaM-CA-Ng.loop3.water3.frame884 

   0  1 
C        126.26771       -1.99656      -14.94971
C        127.65267       -2.11354      -15.51638
O        127.80371       -2.00835      -16.72369
H        125.61260       -2.78135      -15.37850
H        126.27115       -2.09317      -13.84347
H        125.85520       -0.99648      -15.20544
N        128.72194       -2.29977      -14.69360
C        130.10360       -2.27522      -15.16045
C        130.38749       -3.40577      -16.14293
O        130.22332       -4.56421      -15.78692
C        131.06226       -2.31883      -13.94930
C        132.48378       -1.94391      -14.27962
O        133.39466       -1.88693      -13.29134
O        132.81749       -1.65596      -15.41750
H        128.54463       -2.38796      -13.68082
H        130.26451       -1.29525      -15.64730
H        131.02282       -3.32047      -13.47048
H        130.72225       -1.57422      -13.20061
N        130.82646       -3.12779      -17.40515
C        131.13391       -4.14961      -18.40481
C        132.24710       -5.07982      -17.93408
O        132.12545       -6.28086      -18.12898
C        131.52051       -3.51253      -19.76647
C        130.33640       -2.76808      -20.42108
C        130.67378       -2.28940      -21.84383
C        129.44885       -1.64751      -22.51861
N        129.74751       -1.25140      -23.89583
H        130.95988       -2.14039      -17.66501
H        130.22851       -4.76788      -18.59813
H        131.81076       -4.33633      -20.45636
H        132.39408       -2.83342      -19.65306
H        130.02951       -1.89973      -19.79992
H        129.47816       -3.47173      -20.49247
H        130.99058       -3.16396      -22.45351
H        131.50979       -1.55706      -21.80927
H        129.12499       -0.75478      -21.93896
H        128.60953       -2.37875      -22.53232
H        130.02567       -2.08811      -24.45909
H        128.89120       -0.83124      -24.32540
H        130.51664       -0.54338      -23.91144
N        133.35146       -4.59271      -17.29946
C        134.48902       -5.41849      -16.87295
C        134.64730       -5.51801      -15.35436
O        135.56948       -6.19084      -14.91302
C        135.78685       -4.89390      -17.52925
C        136.15661       -3.47550      -17.16324
O        137.14397       -2.96590      -17.66553
O        135.39349       -2.75276      -16.32074
H        133.37300       -3.58252      -17.11756
H        134.34990       -6.46458      -17.22473
H        135.65875       -4.94181      -18.63213
H        136.63232       -5.56248      -17.25605
N        133.77192       -4.93179      -14.49172
C        133.83891       -5.09246      -13.04492
C        135.00699       -4.41494      -12.34220
O        135.05954       -4.54432      -11.12720
H        132.96415       -4.42515      -14.87108
H        133.84457       -6.17815      -12.80434
H        132.91573       -4.66152      -12.60174
N        135.96397       -3.68068      -12.98775
C        137.07542       -3.03215      -12.28327
C        137.10130       -1.52751      -12.52169
O        136.34801       -1.02307      -13.33934
C        138.40878       -3.65168      -12.75699
C        138.51063       -5.11290      -12.40129
N        138.52838       -5.50541      -11.10563
O        138.59681       -5.94817      -13.28893
H        135.92432       -3.58357      -14.00994
H        136.97974       -3.17188      -11.18586
H        139.27386       -3.13561      -12.28912
H        138.49269       -3.52360      -13.86031
H        138.47568       -4.81323      -10.34408
H        138.60846       -6.50316      -10.86052
N        137.98053       -0.74870      -11.82414
C        138.19553        0.67059      -12.06958
C        136.96608        1.53018      -11.86103
O        136.44316        1.58104      -10.75774
H        138.57633       -1.19673      -11.11115
H        138.57438        0.78811      -13.10687
H        138.98935        1.04051      -11.38464
N        136.46416        2.24554      -12.90831
C        135.30285        3.12928      -12.84006
C        134.12250        2.46202      -13.53187
O        134.22435        1.30116      -13.89252
C        135.64066        4.48894      -13.51214
C        136.62934        5.34677      -12.76280
C        136.33910        5.78755      -11.45929
C        137.81410        5.77755      -13.38259
C        137.21731        6.64449      -10.78973
C        138.68990        6.63780      -12.71158
C        138.39449        7.07665      -11.41642
O        139.24112        7.91868      -10.78982
H        136.90523        2.12838      -13.83329
H        134.97746        3.30279      -11.79208
H        134.73807        5.12411      -13.58525
H        135.98386        4.30218      -14.55260
H        135.42416        5.48464      -10.96622
H        138.05133        5.46691      -14.39231
H        136.97484        6.98223       -9.78976
H        139.59310        6.97474      -13.20457
H        139.06528        8.25809       -9.90045
N        132.94912        3.14829      -13.70659
C        131.71485        2.62129      -14.28478
C        131.90920        2.13065      -15.71909
O        132.75673        1.27957      -15.95394
C        131.07023        1.53616      -13.37578
C        129.62364        1.18188      -13.83367
C        131.06968        1.95426      -11.89149
C        128.60354        2.33123      -13.75894
H        132.89537        4.12029      -13.37683
H        131.00550        3.47312      -14.29809
H        131.68718        0.61661      -13.43836
H        129.24127        0.35741      -13.19484
H        129.64448        0.81403      -14.87845
H        132.10781        2.08246      -11.51963
H        130.53179        2.91143      -11.73570
H        130.59656        1.16348      -11.27092
H        127.60794        1.96023      -14.07846
H        128.50152        2.71693      -12.72421
H        128.86734        3.16890      -14.43408
N        131.10850        2.57426      -16.72934
C        131.24508        2.11355      -18.11081
C        131.31971        3.24700      -19.12005
O        131.49357        2.95606      -20.29316
C        130.03842        1.24613      -18.47570
O        129.94919        0.17696      -17.58435
H        130.32791        3.20556      -16.49026
H        132.16409        1.49511      -18.22636
H        130.14360        0.84228      -19.50674
H        129.11984        1.87828      -18.42156
H        128.98676       -0.03922      -17.50969
N        131.12195        4.55261      -18.76639
C        131.03128        5.60823      -19.76775
C        132.36671        5.83210      -20.46036
O        133.37989        5.40853      -19.91921
C        130.56912        6.90294      -19.08928
H        130.95298        4.79971      -17.78447
H        130.25532        5.30123      -20.49826
H        129.59330        6.73521      -18.58568
H        131.31199        7.22581      -18.32848
H        130.43364        7.71712      -19.81687
N        132.49634        6.50170      -21.64462
C        131.39474        6.89973      -22.52108
C        131.85940        7.98790      -23.48458
O        132.88999        7.79407      -24.11462
C        130.92948        5.68901      -23.34213
H        133.45677        6.61084      -22.00685
H        130.52781        7.24350      -21.93761
H        130.57053        4.86997      -22.68771
H        130.08931        5.98601      -24.00724
H        131.75723        5.29336      -23.96843
N        131.15795        9.13607      -23.73232
C        129.83894        9.44693      -23.18497
C        129.83709        9.77594      -21.69952
O        128.75517        9.82906      -21.13095
C        129.18022       10.61539      -23.96043
C        129.92755       11.95762      -23.81104
C        129.22197       13.05291      -24.55494
O        129.07325       12.98077      -25.76447
O        128.76238       14.13037      -23.89042
H        131.55095        9.76166      -24.45162
H        129.19846        8.55229      -23.35419
H        128.13821       10.74587      -23.59229
H        129.12507       10.34079      -25.03711
H        130.96204       11.88326      -24.20397
H        129.98492       12.23812      -22.73776
N        130.98230       10.07035      -21.01948
C        130.99195       10.44914      -19.61847
H        131.38149       11.48359      -19.51996
H        129.98021       10.41664      -19.15991
H        131.65150        9.76093      -19.05206
H        131.88674       10.06712      -21.51087
Ca       135.62506       -0.53672      -15.98764
O        138.30518       -0.00460      -17.11081
H        137.70820       -0.30159      -17.84352
H        138.26451       -0.73463      -16.44234
O        135.65902        2.28325      -16.80119
H        136.56142        2.42013      -16.41713
H        135.16396        3.11176      -16.58232
O        134.12796       -0.75320      -18.65348
H        134.32978       -0.09962      -19.36904
H        134.73163       -1.51564      -18.83871

Ca 1.0



