%chk=apoCaM-CA-Ng.loop1.water2.frame453.chk
%nprocshared=20
%mem=10GB
%nosave
#b3lyp/svp scf=(tight,noincore,xqc) Test 
#IOP(5/87=12) Density=Current Pop=(MK,readradii) iop(6/33=2) iop(6/42=6)

apoCaM-CA-Ng.loop1.water2.frame453 

   0  1 
C         84.85468       87.22810       64.20782
C         83.90369       87.37454       63.05758
O         83.51649       86.38205       62.45736
H         85.78580       87.79467       63.99563
H         84.38582       87.63868       65.12789
H         85.10974       86.16204       64.38100
N         83.47097       88.61361       62.70591
C         82.50240       88.86049       61.64331
C         83.13535       88.82197       60.24893
O         82.46803       89.21587       59.30893
C         81.79717       90.21946       61.87836
C         81.07479       90.25713       63.20546
O         81.75751       90.20903       64.36517
O         79.85885       90.33687       63.23790
H         83.80530       89.41283       63.26654
H         81.68749       88.10822       61.69350
H         81.03963       90.36251       61.07540
H         82.51982       91.06180       61.82494
N         84.40119       88.36708       60.02063
C         85.06897       88.43931       58.72159
C         85.39253       87.05526       58.17131
O         85.82987       86.22155       58.95176
C         86.37521       89.22925       58.90439
C         86.09149       90.70747       59.19349
C         87.39765       91.47156       59.40605
C         87.12967       92.96747       59.59581
N         88.37469       93.68544       59.86111
H         84.95236       87.98245       60.79825
H         84.45449       88.98177       57.99137
H         86.98566       89.17897       57.98134
H         86.97551       88.77270       59.72231
H         85.45696       90.81095       60.10051
H         85.54459       91.14153       58.32669
H         88.06163       91.33516       58.52375
H         87.90789       91.06302       60.30575
H         86.43027       93.12048       60.44737
H         86.65601       93.37459       58.67382
H         88.80074       93.33877       60.75143
H         89.04708       93.54824       59.07171
H         88.16735       94.70516       59.95922
N         85.32052       86.72278       56.83665
C         84.91054       87.58498       55.72191
C         85.74210       88.86397       55.67063
O         85.20155       89.93917       55.88074
C         83.37645       87.80167       55.68637
C         82.62945       86.52104       55.40444
O         81.41452       86.54291       55.29131
O         83.29297       85.35704       55.24261
H         85.63671       85.77554       56.57549
H         85.10773       87.06240       54.76075
H         83.14005       88.49105       54.84656
H         82.98897       88.24324       56.62082
N         87.07181       88.85619       55.35995
C         87.77045       87.65412       54.92961
C         89.18365       87.91769       54.43493
O         89.71659       88.98965       54.68311
H         87.56156       89.76396       55.34694
H         87.20527       87.27225       54.06730
H         87.78364       86.87936       55.72397
N         89.86095       87.01795       53.65793
C         89.31516       85.74209       53.19294
C         89.02724       85.80714       51.70171
O         89.45317       86.74585       51.04076
C         90.22158       84.55193       53.57231
C         91.60704       84.60962       52.97936
O         92.46648       85.58444       53.33247
O         91.97733       83.73852       52.20903
H         90.78658       87.30538       53.30808
H         88.34293       85.53910       53.67728
H         89.72434       83.61598       53.23441
H         90.31461       84.50041       54.67816
N         88.22126       84.87034       51.12259
C         87.81061       84.91680       49.72741
C         87.11395       86.22035       49.41555
O         87.57738       86.93718       48.53982
H         87.84121       84.11018       51.70692
H         87.11328       84.07645       49.52110
H         88.70214       84.79618       49.07340
N         86.02481       86.61572       50.13686
C         85.39419       87.92504       49.97078
C         85.65705       88.75409       51.21827
O         86.11897       88.20944       52.20568
C         83.88275       87.76849       49.67936
C         83.64319       86.94134       48.41046
O         83.29350       89.03248       49.51691
H         85.67294       85.99461       50.88232
H         85.86888       88.46956       49.12518
H         83.41750       87.24618       50.54889
H         82.31499       88.91247       49.63572
H         84.10241       87.44142       47.53117
H         84.07358       85.92329       48.51484
H         82.55226       86.83536       48.23004
N         85.47618       90.10410       51.21075
C         85.83816       90.96970       52.33644
C         84.64891       91.79023       52.84169
O         84.84037       92.62301       53.71774
C         87.06376       91.85315       51.94345
C         86.75352       92.83053       50.77884
C         88.26699       90.94064       51.61821
C         87.91130       93.77961       50.45649
H         85.13544       90.54658       50.34522
H         86.17071       90.36643       53.20646
H         87.33999       92.45600       52.83737
H         85.88204       93.45833       51.06161
H         86.49798       92.27311       49.85364
H         88.46655       90.25188       52.46616
H         88.07308       90.33225       50.70879
H         89.19369       91.52618       51.45894
H         88.79750       93.22746       50.08269
H         87.59994       94.48340       49.65635
H         88.19407       94.36588       51.35615
N         83.39035       91.59573       52.35153
C         82.21628       92.38513       52.73080
C         81.79410       92.29614       54.20186
O         80.84524       92.98816       54.53890
C         81.00295       91.99175       51.83601
C         80.56060       90.52605       52.01890
O         81.33159       92.21530       50.48956
H         83.26473       90.88401       51.62289
H         82.45262       93.45290       52.52378
H         80.14903       92.65411       52.11363
H         80.47475       92.27414       49.99095
H         79.67491       90.31762       51.38421
H         81.35661       89.80839       51.73854
H         80.27642       90.32453       53.06508
N         82.38691       91.46624       55.11509
C         81.94239       91.28872       56.50982
C         80.54116       90.65001       56.52317
O         79.98273       90.48128       55.45048
C         82.12641       92.61556       57.31931
C         82.19406       92.45183       58.84165
O         81.12009       93.54396       57.01086
H         83.17326       90.88384       54.80671
H         82.63878       90.55148       56.96198
H         83.13102       93.00983       57.02866
H         81.54438       94.44078       56.97598
H         83.00216       91.74355       59.11924
H         82.43839       93.43227       59.30419
H         81.23238       92.13078       59.27628
N         79.91747       90.21544       57.65890
C         78.61558       89.54190       57.62307
C         78.67678       88.10971       58.15583
O         77.63075       87.48540       58.26884
C         77.52715       90.41058       58.28640
C         77.62205       90.61668       59.80426
C         76.42097       91.47463       60.25931
C         76.29045       91.62994       61.78092
N         77.39648       92.38558       62.36427
H         80.36766       90.33343       58.57150
H         78.25823       89.43884       56.57587
H         76.54551       89.93238       58.07037
H         77.53085       91.40388       57.78383
H         78.57920       91.11478       60.06381
H         77.57763       89.62676       60.30750
H         75.48666       90.98046       59.91238
H         76.47212       92.48014       59.78532
H         76.21956       90.62571       62.25403
H         75.34211       92.17383       61.99215
H         77.24345       92.46470       63.39589
H         78.30046       91.89768       62.19633
H         77.43459       93.34525       61.95161
N         79.86568       87.49208       58.42404
C         79.97337       86.10338       58.86201
C         79.33145       85.91253       60.21978
O         79.75303       86.54276       61.17926
C         81.46186       85.67144       58.90620
C         81.69256       84.22228       59.37211
C         80.96507       83.21608       58.52759
O         80.05672       82.39643       59.09018
O         81.19528       83.13057       57.33346
H         80.73650       88.00411       58.25030
H         79.46542       85.46193       58.10835
H         82.02715       86.33907       59.58971
H         81.89349       85.78819       57.89226
H         81.36565       84.11677       60.42833
H         82.78194       84.00421       59.33185
N         78.31655       85.02049       60.37640
C         77.71655       84.75902       61.66518
H         76.91830       83.99387       61.56139
H         78.48731       84.37167       62.36607
H         77.27342       85.69003       62.07619
H         77.96936       84.49339       59.56085
Ca        82.28118       83.41844       54.68936
O         79.42977       84.05907       54.06754
H         79.86157       84.85986       53.67673
H         79.45561       83.38615       53.34157
O         82.92030       81.57329       52.37268
H         82.86292       82.32181       51.72688
H         82.31965       80.87844       52.00317

Ca 1.0



