%chk=apoCaM-CA-Ng.loop1.water3.frame984.chk
%nprocshared=20
%mem=10GB
%nosave
#b3lyp/svp scf=(tight,noincore,xqc) Test 
#IOP(5/87=12) Density=Current Pop=(MK,readradii) iop(6/33=2) iop(6/42=6)

apoCaM-CA-Ng.loop1.water3.frame984 

   0  1 
C         61.68749       91.14959       47.72878
C         60.66489       90.38203       48.51050
O         59.65860       89.98225       47.94219
H         62.66108       90.61983       47.76014
H         61.36832       91.26422       46.67068
H         61.80538       92.16168       48.17205
N         60.84650       90.17579       49.84515
C         59.85136       89.52560       50.69508
C         59.19528       90.56214       51.58830
O         59.60905       91.71402       51.56573
C         60.45146       88.31247       51.44744
C         61.59317       88.59856       52.39028
O         62.16317       87.57792       53.05846
O         62.01692       89.72823       52.55849
H         61.69489       90.56627       50.28120
H         59.02696       89.12692       50.06498
H         60.81785       87.58680       50.68956
H         59.64795       87.81505       52.03070
N         58.09004       90.24356       52.32295
C         57.28803       91.25080       53.00850
C         57.23601       90.97893       54.49382
O         56.91773       89.86918       54.89745
C         55.89257       91.30898       52.36781
C         55.10870       92.53373       52.86517
C         53.82310       92.74353       52.06078
C         53.12811       94.04333       52.48856
N         51.94042       94.29552       51.67479
H         57.75128       89.26918       52.32330
H         57.73242       92.25691       52.85103
H         55.32569       90.36721       52.53865
H         56.04375       91.43000       51.27176
H         55.74360       93.43649       52.72197
H         54.87779       92.43120       53.94795
H         53.14046       91.87743       52.20060
H         54.08380       92.82359       50.98202
H         53.83345       94.89650       52.36581
H         52.84038       93.97906       53.56126
H         52.20968       94.38708       50.66781
H         51.25341       93.51575       51.78815
H         51.49787       95.19026       51.98595
N         57.54252       91.97992       55.36820
C         57.66475       91.78339       56.81326
C         57.81490       93.12139       57.54995
O         58.13911       94.11791       56.91896
C         58.91793       90.89545       57.06172
C         60.12405       91.49985       56.37874
O         60.57405       92.57325       56.74678
O         60.63621       90.91314       55.28061
H         57.71990       92.91277       54.97156
H         56.73529       91.30003       57.17841
H         58.73803       89.89533       56.61615
H         59.13575       90.73385       58.13485
N         57.63999       93.25222       58.89723
C         57.13375       92.22882       59.79733
C         55.64854       91.98954       59.62695
O         55.02037       92.58268       58.76020
H         57.86177       94.16708       59.31885
H         57.25537       92.60067       60.83828
H         57.71025       91.28950       59.71181
N         55.01358       91.13643       60.47838
C         53.56938       90.91958       60.47552
C         52.85252       92.19876       60.86176
O         52.00868       92.65590       60.10489
C         53.17921       89.79595       61.45753
C         53.81148       88.48768       61.07154
O         54.64549       87.86382       61.92481
O         53.57059       87.98338       59.98594
H         55.58733       90.63668       61.17553
H         53.24109       90.60082       59.45964
H         52.07473       89.66326       61.45095
H         53.48966       90.06429       62.49058
N         53.15207       92.84017       62.03030
C         52.50735       94.07376       62.45610
C         52.79938       95.27458       61.56998
O         52.25188       96.32996       61.85366
H         53.85656       92.42801       62.66053
H         52.85669       94.32939       63.48090
H         51.40961       93.90609       62.50325
N         53.64321       95.20761       60.49719
C         53.93138       96.33442       59.61232
C         55.42151       96.63212       59.64209
O         56.17024       95.85185       60.20948
C         53.47577       95.97735       58.17347
C         51.97997       95.65195       58.11706
O         53.73561       97.04403       57.29899
H         54.11624       94.32449       60.28231
H         53.39390       97.24410       59.95781
H         54.05056       95.07552       57.85080
H         53.83178       96.65665       56.38967
H         51.38065       96.52772       58.44285
H         51.69399       95.38324       57.07830
H         51.73623       94.78979       58.76740
N         55.93013       97.75410       59.05061
C         57.36564       98.04513       59.04264
C         57.88580       98.26934       60.46753
O         59.08578       98.15242       60.67847
C         57.70976       99.23416       58.08584
C         57.11101       99.06328       56.65616
C         59.23024       99.47110       57.98026
C         57.50664       97.77294       55.93096
H         55.27661       98.40513       58.59870
H         57.86885       97.13643       58.64277
H         57.26236      100.16201       58.50647
H         57.41672       99.93225       56.03365
H         56.00411       99.09407       56.69461
H         59.75384       98.56941       57.60014
H         59.43834      100.32120       57.29650
H         59.66717       99.74653       58.95949
H         58.60463       97.69966       55.80186
H         57.13534       96.88224       56.47889
H         57.03805       97.76421       54.92417
N         57.03241       98.51324       61.50650
C         57.44168       98.55458       62.90726
C         56.99090       99.83655       63.59344
O         56.33553      100.67458       62.98646
C         56.85658       97.30959       63.65249
C         55.32689       97.20002       63.55824
O         57.45741       96.11599       63.21682
H         56.02729       98.62065       61.31217
H         58.54961       98.50793       63.00015
H         57.10543       97.38408       64.72835
H         57.44938       96.10057       62.22980
H         54.84406       98.11862       63.95410
H         54.99872       97.04586       62.51186
H         54.97353       96.33252       64.15220
N         57.30134      100.01331       64.90707
C         56.85834      101.11784       65.74343
C         58.06858      101.84778       66.29547
O         58.15601      103.05495       66.12712
C         55.94445      100.56340       66.86625
C         55.39761      101.67221       67.77206
O         56.63324       99.61816       67.64505
H         57.86838       99.28522       65.36296
H         56.24523      101.83922       65.15540
H         55.08131      100.06960       66.35874
H         55.95099       99.01796       68.04498
H         54.71153      101.23278       68.52715
H         56.22197      102.18851       68.30798
H         54.83035      102.41537       67.17292
N         59.06462      101.16540       66.93546
C         60.25738      101.82527       67.44716
C         61.43221      100.86962       67.58992
O         61.26187       99.66015       67.63393
C         59.96220      102.52518       68.79263
C         59.36863      101.54296       69.82449
C         59.13340      102.20682       71.18451
C         58.41276      101.24247       72.13999
N         58.21221      101.85334       73.45321
H         58.99921      100.14296       67.00951
H         60.58775      102.56363       66.68265
H         59.22955      103.34462       68.63048
H         60.89947      102.97720       69.18558
H         60.04772      100.67454       69.96929
H         58.39628      101.16888       69.43589
H         58.50528      103.11446       71.05472
H         60.11383      102.50556       71.61653
H         59.00579      100.30827       72.25844
H         57.42225      100.97405       71.70748
H         57.66205      102.73800       73.36103
H         57.68284      101.18831       74.06251
H         59.13714      102.05584       73.89730
N         62.68972      101.39443       67.60995
C         63.90892      100.60587       67.72307
C         63.98316       99.50272       66.66349
O         64.13877       98.35850       67.06699
C         65.13567      101.54919       67.71124
C         66.46415      100.82034       67.94196
C         67.59949      101.80483       67.97112
O         67.62246      102.78395       68.89649
O         68.50641      101.72278       67.15844
H         62.78026      102.41876       67.52456
H         63.90387      100.11316       68.72209
H         64.99920      102.29207       68.52856
H         65.19260      102.11543       66.76373
H         66.63316      100.08179       67.12842
H         66.43390      100.28132       68.91282
N         63.85755       99.69434       65.31637
C         63.59752      100.96008       64.66593
H         62.64301      101.39398       65.02498
H         64.43239      101.66540       64.81570
H         63.49923      100.79778       63.57102
H         63.91577       98.86407       64.70543
Ca        62.00483       92.14237       53.96343
O         64.23806       91.76381       55.70030
H         65.04946       92.32983       55.72487
H         64.52228       90.93661       55.23584
O         62.68671       95.07972       54.48613
H         62.22706       94.98906       55.35857
H         63.64426       94.93650       54.69349
O         59.70707       94.23968       53.61400
H         58.98209       94.87468       53.84056
H         60.01332       94.52098       52.71547

Ca 1.0



