%chk=apoCaM-CA-Ng.loop2.water3.frame1436.chk
%nprocshared=20
%mem=10GB
%nosave
#b3lyp/svp scf=(tight,noincore,xqc) Test 
#IOP(5/87=12) Density=Current Pop=(MK,readradii) iop(6/33=2) iop(6/42=6)

apoCaM-CA-Ng.loop2.water3.frame1436 

   -2  1 
C         87.09844       84.45461       -9.95367
C         85.74381       83.92286       -9.57923
O         85.66960       82.79721       -9.10818
H         87.88186       83.69620       -9.74017
H         87.13964       84.70633      -11.03094
H         87.32123       85.35834       -9.34911
N         84.60549       84.66097       -9.71172
C         84.55863       86.02059      -10.25386
C         84.81454       86.09348      -11.76905
O         84.91665       87.19842      -12.28365
C         83.19255       86.66876       -9.92184
C         82.02797       85.95516      -10.55436
O         80.77993       86.41873      -10.40966
O         82.19847       84.96427      -11.24577
H         83.73467       84.23772       -9.35273
H         85.33159       86.62487       -9.73203
H         83.19402       87.72209      -10.27821
H         83.04776       86.68065       -8.82040
N         84.90772       84.97588      -12.54865
C         85.17353       85.01280      -13.98655
C         84.07797       85.70248      -14.79274
O         84.41014       86.37221      -15.76072
C         85.36117       83.58910      -14.52744
H         84.80733       84.05116      -12.10572
H         86.13950       85.53727      -14.16310
H         84.43570       82.98843      -14.39954
H         85.62444       83.61939      -15.60754
H         86.19358       83.08722      -13.98796
N         82.75588       85.52822      -14.49882
C         81.65984       86.03816      -15.32671
C         80.84288       87.10084      -14.59964
O         81.20156       87.48606      -13.49532
C         80.82668       84.83508      -15.83125
C         80.16363       84.02986      -14.74347
O         79.14547       84.54708      -14.03080
O         80.50429       82.87413      -14.54758
H         82.50861       84.97431      -13.66902
H         82.05871       86.54135      -16.23458
H         81.52561       84.17427      -16.39031
H         80.04743       85.16049      -16.55032
N         79.73180       87.63813      -15.18598
C         78.94901       88.71948      -14.60895
C         77.68106       88.19810      -13.97191
O         77.77008       87.49731      -12.97743
H         79.42255       87.28046      -16.10140
H         78.73211       89.45503      -15.41530
H         79.52126       89.27077      -13.83333
N         76.45713       88.51567      -14.47589
C         75.19433       88.10194      -13.85897
C         75.11067       86.59425      -13.69986
O         75.27119       85.88144      -14.68163
C         74.01087       88.61284      -14.71437
C         72.65650       88.23540      -14.15007
N         71.78175       89.18616      -13.75006
O         72.33723       87.05807      -14.07073
H         76.42366       89.08880      -15.33356
H         75.11331       88.57655      -12.85555
H         74.08572       88.20529      -15.74631
H         74.09089       89.71979      -14.77974
H         72.01997       90.18611      -13.80995
H         70.85907       88.91819      -13.37602
N         74.78105       86.04506      -12.48925
C         74.58008       84.61463      -12.31809
C         75.87529       83.85474      -12.46391
O         76.92046       84.48473      -12.47349
H         74.59665       86.66154      -11.68338
H         73.84332       84.29356      -13.08217
H         74.15966       84.39298      -11.31347
N         75.93188       82.50434      -12.62992
C         74.78314       81.60593      -12.72263
C         74.92696       80.39430      -11.79830
O         74.08037       79.51385      -11.87924
C         74.64093       81.13397      -14.19853
C         74.21308       82.27622      -15.13755
O         75.82153       80.51540      -14.65499
H         76.86625       82.09402      -12.78802
H         73.83557       82.11198      -12.44462
H         73.82255       80.38480      -14.26393
H         76.46319       81.22588      -14.92233
H         73.23204       82.68519      -14.81325
H         74.95979       83.09725      -15.14501
H         74.09943       81.89235      -16.17340
N         75.96749       80.25476      -10.92241
C         76.23207       79.03198      -10.16431
C         76.23190       79.32999       -8.66628
O         76.94105       80.24793       -8.27410
C         77.61754       78.46369      -10.59689
C         77.64877       78.24254      -12.13455
C         77.90696       77.15049       -9.84725
C         78.98069       77.70812      -12.66059
H         76.65488       81.01543      -10.82226
H         75.49136       78.24904      -10.41026
H         78.40885       79.20087      -10.33246
H         77.47428       79.21431      -12.64377
H         76.83788       77.54375      -12.43615
H         77.87739       77.29419       -8.74744
H         77.14989       76.39646      -10.13465
H         78.91637       76.75979      -10.07924
H         79.18437       76.68731      -12.27934
H         78.93676       77.64463      -13.76806
H         79.80988       78.38812      -12.37303
N         75.56194       78.58493       -7.72943
C         74.71553       77.41614       -8.00521
C         74.51750       76.53408       -6.76104
O         74.99612       76.87195       -5.68889
C         73.34974       77.88440       -8.57309
C         72.62189       78.82052       -7.64204
O         72.35154       79.95417       -8.00556
O         72.25195       78.41544       -6.41252
H         75.71801       78.85305       -6.74617
H         75.22915       76.75420       -8.73068
H         72.69654       77.01436       -8.78806
H         73.50001       78.40874       -9.53485
N         73.77624       75.38349       -6.84799
C         73.40443       74.57819       -5.68425
C         73.50644       73.07281       -5.98216
O         73.02019       72.68381       -7.03384
C         71.93136       74.89285       -5.35791
C         71.56461       74.40614       -3.97998
C         70.70665       73.31127       -3.80050
C         72.09163       75.06305       -2.85197
C         70.38863       72.87541       -2.50957
C         71.76204       74.63206       -1.56585
C         70.91284       73.53690       -1.39422
H         73.35384       75.13968       -7.75418
H         73.99365       74.88657       -4.80653
H         71.27997       74.45220       -6.14484
H         71.75190       75.98922       -5.36831
H         70.29828       72.78845       -4.65579
H         72.75147       75.91462       -2.97042
H         69.73505       72.02448       -2.37299
H         72.16599       75.14772       -0.70385
H         70.66138       73.20202       -0.39656
N         73.99104       72.13626       -5.09498
C         74.50905       72.38492       -3.76009
C         75.74123       73.25042       -3.79371
O         75.74034       74.31727       -3.19798
C         74.81834       70.97952       -3.20325
C         73.78135       70.13784       -3.91201
C         73.84758       70.71034       -5.32567
H         73.70132       72.84573       -3.15510
H         75.79628       70.60046       -3.57000
H         74.82664       70.90903       -2.09505
H         73.94002       69.03927       -3.85283
H         72.78638       70.38328       -3.47526
H         74.74386       70.34491       -5.87394
H         72.91709       70.43739       -5.86987
N         76.83513       72.84218       -4.49423
C         78.02002       73.65687       -4.67590
C         79.11783       73.10504       -3.78271
O         79.53959       71.97847       -4.00285
C         78.43584       73.60114       -6.16303
C         77.32507       74.11064       -7.10077
C         77.60926       73.81305       -8.54864
O         76.77545       74.09800       -9.39183
O         78.74165       73.18745       -8.92773
H         76.82889       71.91405       -4.94258
H         77.79898       74.71065       -4.41620
H         78.64063       72.53523       -6.41268
H         79.36742       74.18335       -6.33415
H         77.18771       75.20404       -6.95579
H         76.36883       73.60032       -6.86208
N         79.62314       73.79779       -2.72143
C         79.15795       75.10695       -2.31465
H         78.07654       75.06449       -2.06275
H         79.70663       75.43880       -1.40839
H         79.33180       75.84815       -3.12237
H         80.36020       73.35587       -2.15055
Ca        79.55213       85.58405      -12.08006
O         79.23534       88.73615      -10.82832
H         78.50034       89.30901      -10.49571
H         79.81731       89.34630      -11.34672
O         77.39367       86.08656       -9.73887
H         77.22398       86.94777       -9.28069
H         76.70914       85.47111       -9.37406
O         79.43794       82.96579      -10.44686
H         78.93351       82.30093      -10.97951
H         79.06179       82.89129       -9.53404

Ca 1.0



