%chk=apoCaM-CA-Ng.loop3.water4.frame1022.chk
%nprocshared=20
%mem=10GB
%nosave
#b3lyp/svp scf=(tight,noincore,xqc) Test 
#IOP(5/87=12) Density=Current Pop=(MK,readradii) iop(6/33=2) iop(6/42=6)

apoCaM-CA-Ng.loop3.water4.frame1022 

   0  1 
C         33.68419       43.59537       34.30620
C         33.49658       43.81456       32.83388
O         33.51533       44.96140       32.40966
H         34.66910       44.00067       34.61959
H         32.88165       44.12378       34.86310
H         33.64374       42.51711       34.56607
N         33.30286       42.75833       31.99120
C         33.08308       42.91113       30.55834
C         31.68994       42.41370       30.20972
O         30.85315       43.24002       29.87406
C         34.22920       42.27115       29.73207
C         34.50466       40.81313       29.98844
O         34.39650       40.00307       29.08152
O         34.91577       40.39560       31.20092
H         33.28212       41.80861       32.39013
H         33.09993       43.99213       30.29097
H         35.16888       42.82309       29.95104
H         34.00218       42.40173       28.65548
N         31.35509       41.09367       30.27978
C         30.00184       40.59458       30.07042
C         29.89719       39.84519       28.75674
O         30.69497       38.95383       28.49920
C         29.60066       39.65709       31.22381
C         29.60003       40.35890       32.58860
C         29.14192       39.38758       33.68387
C         29.12163       40.06183       35.06048
N         28.66611       39.12670       36.08924
H         32.07669       40.39994       30.51320
H         29.26719       41.42987       30.05400
H         30.29523       38.78789       31.25810
H         28.57438       39.27576       31.02266
H         28.90665       41.22783       32.55458
H         30.62325       40.72569       32.82389
H         29.83126       38.51510       33.71549
H         28.11819       39.02425       33.44415
H         28.43736       40.93896       35.03497
H         30.14428       40.41944       35.31462
H         28.66269       39.61036       37.01604
H         27.69527       38.80127       35.87460
H         29.30968       38.30357       36.13879
N         28.86464       40.11932       27.90671
C         28.62846       39.38386       26.66609
C         29.67437       39.69361       25.60624
O         30.51271       40.55820       25.81705
C         27.20731       39.67633       26.11483
C         27.00104       41.09542       25.64000
O         26.73382       41.31121       24.46865
O         27.07122       42.12944       26.49864
H         28.17214       40.81850       28.20917
H         28.65993       38.29774       26.90577
H         26.45281       39.44389       26.89683
H         27.00906       38.99056       25.26337
N         29.64872       39.03681       24.40980
C         30.52761       39.36538       23.30184
C         31.98185       39.10290       23.64467
O         32.29315       37.96120       23.95072
H         28.94266       38.30230       24.25402
H         30.31920       40.41240       23.01848
H         30.26454       38.73469       22.42521
N         32.94742       40.07269       23.65491
C         32.71712       41.47844       23.33469
C         33.89970       42.30753       23.83091
O         35.00268       42.09969       23.34453
C         32.49825       41.67866       21.81088
C         31.97704       43.05909       21.46402
N         32.72113       44.17504       21.65158
O         30.85633       43.16474       20.98748
H         33.88853       39.79034       23.97369
H         31.79838       41.78760       23.86113
H         31.74674       40.94865       21.45081
H         33.43063       41.46507       21.24554
H         33.67928       44.12933       22.02069
H         32.33924       45.10055       21.40555
N         33.77803       43.26189       24.79901
C         32.51645       43.56634       25.44689
C         32.66475       44.62673       26.49826
O         33.40652       44.41979       27.44551
H         34.62465       43.78105       25.08226
H         32.13125       42.65464       25.95012
H         31.78668       43.90005       24.67961
N         31.97007       45.79283       26.40209
C         32.02522       46.83529       27.41631
C         30.56804       47.05589       27.88801
O         29.80871       47.57242       26.83364
C         32.72850       48.06919       26.78077
C         33.45853       48.99648       27.73901
C         32.78922       49.80712       28.66659
C         34.86607       49.06982       27.68092
C         33.49878       50.65357       29.52468
C         35.57584       49.91874       28.53286
C         34.89334       50.71292       29.46146
O         35.56472       51.53816       30.28962
H         31.37970       45.95319       25.57062
H         32.64572       46.48841       28.27134
H         32.04317       48.62697       26.10764
H         33.51615       47.64843       26.11666
H         31.72447       49.80446       28.72643
H         35.42367       48.46994       26.97223
H         32.96164       51.26936       30.23527
H         36.65593       49.95818       28.46721
H         36.52979       51.61162       30.27012
N         30.43888       47.84470       29.12677
C         29.05220       48.29447       29.42146
C         28.71764       49.53084       28.58965
O         29.43542       50.51819       28.66353
C         28.80352       48.56669       30.94322
C         28.73240       47.23301       31.73889
C         29.82917       49.54289       31.55459
C         28.22658       47.40325       33.17398
H         30.78850       47.21870       29.88499
H         28.33090       47.49403       29.15672
H         27.79002       49.02324       31.02042
H         29.71641       46.72143       31.76305
H         28.00470       46.55965       31.23508
H         30.85180       49.11245       31.51715
H         29.83088       50.51538       31.02856
H         29.58015       49.77276       32.60893
H         28.13358       46.40515       33.65207
H         28.92542       48.00548       33.78696
H         27.22489       47.88471       33.17395
N         27.64544       49.53544       27.74723
C         27.31488       50.66661       26.88052
C         26.21054       50.32924       25.88524
O         25.64745       49.24408       25.93623
C         26.88730       51.88692       27.72491
O         25.73169       51.57511       28.45539
H         27.06358       48.68888       27.71135
H         28.21822       50.91786       26.28037
H         26.69089       52.75255       27.05464
H         27.69234       52.18860       28.42484
H         25.37955       52.43527       28.80284
N         25.84776       51.23783       24.93771
C         24.77215       51.04578       23.97481
C         23.43741       50.89372       24.68616
O         22.73912       49.91141       24.47956
C         25.08101       49.88869       23.00974
H         26.35092       52.13840       24.89856
H         24.70191       51.96529       23.35224
H         24.28525       49.81773       22.23760
H         26.04646       50.07660       22.49407
H         25.13817       48.91443       23.53520
N         23.01973       51.87712       25.53798
C         21.71600       51.91983       26.19720
C         21.46038       50.80313       27.20687
O         20.37068       50.79113       27.76451
C         20.59777       51.98294       25.14569
H         23.64447       52.68376       25.68995
H         21.65988       52.87251       26.77065
H         20.77559       52.83983       24.46110
H         20.54110       51.05156       24.54741
H         19.61427       52.13838       25.63809
N         22.39164       49.85795       27.53496
C         22.12816       48.81961       28.53282
C         21.85148       49.46507       29.87913
O         20.77968       49.25633       30.43049
C         23.32430       47.85781       28.69128
C         23.65950       47.02948       27.43383
C         24.97040       46.30055       27.61373
O         25.67001       45.90022       26.53556
O         25.53100       46.29807       28.70052
H         23.31728       49.88837       27.09009
H         21.24551       48.21843       28.21788
H         23.12009       47.14641       29.52286
H         24.21596       48.46615       28.96236
H         23.79138       47.72338       26.58279
H         22.84349       46.32441       27.16904
N         22.78218       50.26858       30.46669
C         22.56275       50.89378       31.75166
H         21.67789       51.56272       31.70256
H         22.40147       50.11656       32.52855
H         23.45151       51.49805       32.03370
H         23.67803       50.44666       29.98925
Ca        27.80647       46.48696       26.92983
O         29.53649       43.69831       26.77570
H         29.88382       42.97309       27.35274
H         29.49960       43.29576       25.87222
O         27.88138       47.76543       24.23880
H         27.01931       47.27929       24.20150
H         27.76300       48.53230       23.62506
O         28.79124       44.80269       23.52371
H         29.68146       44.37042       23.52200
H         28.86417       45.51767       22.84283
O         27.87354       44.00938       29.37140
H         28.51123       44.75673       29.49524
H         27.14084       44.19917       30.00939

Ca 1.0



