%chk=apoCaM-CA-Ng.loop3.water5.frame490.chk
%nprocshared=20
%mem=10GB
%nosave
#b3lyp/svp scf=(tight,noincore,xqc) Test 
#IOP(5/87=12) Density=Current Pop=(MK,readradii) iop(6/33=2) iop(6/42=6)

apoCaM-CA-Ng.loop3.water5.frame490 

   0  1 
C         37.10901       47.67296       97.51415
C         35.71860       47.21997       97.86562
O         35.56079       46.48778       98.83040
H         37.75203       46.79065       97.31357
H         37.11089       48.31740       96.60884
H         37.53881       48.25349       98.35666
N         34.65675       47.61068       97.10863
C         33.27689       47.21399       97.37524
C         32.78578       47.76691       98.70705
O         32.83646       48.97162       98.91463
C         32.37245       47.71580       96.23270
C         30.93108       47.35256       96.44240
O         30.59217       46.18358       96.54066
O         30.00646       48.32748       96.52034
H         34.84529       48.20519       96.28609
H         33.21703       46.10204       97.37701
H         32.71411       47.26723       95.27439
H         32.45683       48.82135       96.14983
N         32.24687       46.92677       99.63873
C         31.67683       47.37545      100.91005
C         32.73237       47.62086      101.98100
O         32.36172       47.79590      103.13446
C         30.63178       46.35432      101.41926
C         29.42783       46.15138      100.47541
C         28.66201       47.45891      100.18746
C         27.31558       47.23916       99.47824
N         27.45742       46.59110       98.17487
H         32.16593       45.92715       99.39705
H         31.13470       48.33359      100.77442
H         30.22238       46.71233      102.39022
H         31.12260       45.37310      101.60104
H         28.74103       45.43781      100.98010
H         29.76475       45.69510       99.52154
H         29.28691       48.13713       99.56758
H         28.44051       47.96712      101.15142
H         26.83641       48.23404       99.33646
H         26.64967       46.62819      100.12559
H         27.83565       45.62336       98.28144
H         26.51599       46.52783       97.72501
H         28.08105       47.15540       97.55913
N         34.05541       47.72079      101.67337
C         35.10099       48.00279      102.64700
C         34.72828       49.23439      103.47703
O         34.37966       50.26088      102.91147
C         36.43801       48.18643      101.89377
C         37.58932       48.35325      102.82730
O         38.56802       47.62589      102.76974
O         37.53026       49.34153      103.72167
H         34.34180       47.63798      100.69337
H         35.20636       47.12349      103.32031
H         36.36875       49.08965      101.24719
H         36.63493       47.30706      101.24289
N         34.76194       49.16990      104.84003
C         34.29633       50.21429      105.74100
C         34.90649       51.57392      105.49175
O         34.14330       52.51580      105.32455
H         35.11285       48.30662      105.28106
H         34.52072       49.90634      106.78539
H         33.18990       50.29839      105.65244
N         36.25832       51.76328      105.44311
C         36.85736       53.07788      105.21703
C         37.38383       53.23090      103.79685
O         38.48826       53.71717      103.61016
C         37.87826       53.44652      106.33416
C         39.04658       52.45996      106.54936
N         39.91705       52.88778      107.63341
O         39.81696       52.26682      105.40802
H         36.86860       50.94534      105.54248
H         36.06528       53.85684      105.26994
H         37.31878       53.49005      107.29348
H         38.28403       54.46309      106.13806
H         39.37677       52.85774      108.52536
H         40.68376       52.18190      107.71587
N         36.57829       52.94672      102.73053
C         36.89472       53.35614      101.36853
C         38.18002       52.81021      100.77921
O         38.59406       53.34095       99.75906
H         35.65077       52.53120      102.89780
H         36.98013       54.46407      101.38255
H         36.05469       53.10107      100.68523
N         38.85587       51.75949      101.32357
C         40.12736       51.26943      100.79531
C         41.14424       51.21483      101.91610
O         40.87234       50.60250      102.93365
C         39.94866       49.87799      100.16386
C         41.27142       49.33704       99.65949
C         41.99733       50.01218       98.65994
C         41.80261       48.16004      100.20997
C         43.23581       49.52278       98.23250
C         43.04069       47.67345       99.78231
C         43.76375       48.35588       98.79400
O         44.96432       47.90295       98.38033
H         38.44896       51.27114      102.13362
H         40.50546       51.93834       99.99306
H         39.23194       49.94328       99.31700
H         39.51732       49.19287      100.92022
H         41.61345       50.92198       98.21657
H         41.26301       47.62399      100.97912
H         43.78989       50.05606       97.46994
H         43.43859       46.76911      100.22450
H         45.36806       47.10493       98.75050
N         42.36761       51.79103      101.77875
C         43.34756       51.79948      102.85936
C         42.91968       52.86280      103.85324
O         42.75140       52.54928      105.02356
C         44.78834       51.99776      102.30443
C         45.12611       50.81621      101.34812
C         45.80911       52.05063      103.46117
C         46.47050       50.94264      100.63330
H         42.60714       52.24128      100.88242
H         43.36486       50.80454      103.36407
H         44.83079       52.95722      101.74367
H         44.35691       50.74932      100.55354
H         45.10920       49.85726      101.91351
H         46.83451       52.23823      103.08637
H         45.57858       52.87498      104.15927
H         45.80228       51.09982      104.03659
H         46.60249       50.07280       99.95450
H         46.49381       51.87194      100.02693
H         47.31806       50.93916      101.34665
N         42.64843       54.13389      103.43310
C         42.11863       55.15738      104.33015
C         43.14522       55.62220      105.34326
O         42.75799       56.19620      106.35078
C         41.63175       56.38458      103.54187
O         40.73304       56.01811      102.53049
H         42.74824       54.34998      102.42925
H         41.24356       54.71565      104.86025
H         42.50292       56.87945      103.06144
H         41.15495       57.12647      104.22184
H         39.94800       55.61509      102.97832
N         44.47828       55.43867      105.11866
C         45.53707       55.83126      106.03514
C         45.34959       55.14240      107.36988
O         45.41820       55.78429      108.41049
C         45.63116       57.36008      106.14878
H         44.77934       54.97963      104.24903
H         46.49779       55.47022      105.60366
H         44.70961       57.78911      106.59418
H         46.49607       57.64557      106.78417
H         45.77556       57.80327      105.14064
N         45.06024       53.81323      107.39381
C         44.85063       53.05405      108.61094
C         45.76702       51.86128      108.58969
O         45.68623       51.05436      107.67173
C         43.39443       52.60997      108.70987
H         44.95559       53.31341      106.49724
H         45.05647       53.67819      109.50889
H         43.11483       51.97797      107.84281
H         43.23713       52.03421      109.64766
H         42.73536       53.50422      108.73416
N         46.68373       51.69612      109.57629
C         47.63877       50.60433      109.62612
C         48.58221       50.71067      108.43201
O         48.74760       49.75889      107.68049
C         46.88517       49.24223      109.72568
C         47.52415       48.26639      110.72192
C         47.35115       48.76925      112.13356
O         46.23028       48.95245      112.58546
O         48.42462       49.02080      112.90457
H         46.72248       52.38902      110.33995
H         48.23635       50.76545      110.55003
H         46.78074       48.77814      108.72088
H         45.84217       49.40473      110.07683
H         48.59718       48.11451      110.47895
H         47.00436       47.28649      110.65324
N         49.19423       51.89962      108.16972
C         50.02305       52.10626      107.00156
H         50.90200       51.43007      107.02866
H         49.43174       51.91433      106.07951
H         50.37759       53.15920      106.97199
H         49.03493       52.70126      108.79870
Ca        39.17149       50.17434      104.93521
O         42.20623       49.81691      106.41229
H         43.16606       49.60018      106.30375
H         41.89369       50.01372      105.49445
O         42.05808       47.77777      103.68581
H         42.79761       47.62543      104.32610
H         41.89039       46.88781      103.28582
O         38.37604       49.09191      107.75554
H         37.54466       49.59361      107.56229
H         38.06391       48.19979      108.05040
O         41.03246       47.03854      106.72275
H         41.08012       46.18115      106.22984
H         41.42927       46.83948      107.60774
O         38.11124       46.66753      105.60265
H         38.38068       45.72810      105.44450
H         37.13698       46.67981      105.42734

Ca 1.0



