%chk=apoCaM-CA-Ng.loop3.water7.frame1172.chk
%nprocshared=20
%mem=10GB
%nosave
#b3lyp/svp scf=(tight,noincore,xqc) Test 
#IOP(5/87=12) Density=Current Pop=(MK,readradii) iop(6/33=2) iop(6/42=6)

apoCaM-CA-Ng.loop3.water7.frame1172 

   0  1 
C         98.34101       55.81060       -9.93011
C         99.63218       55.80985      -10.69227
O        100.25846       56.85331      -10.80021
H         97.51218       55.50222      -10.60068
H         98.41032       55.09802       -9.08130
H         98.12078       56.82280       -9.52673
N        100.09446       54.65342      -11.24554
C        101.35002       54.55830      -11.98497
C        101.08217       54.09666      -13.40661
O        101.65018       53.10730      -13.84866
C        102.34122       53.64352      -11.22156
C        101.91313       52.20325      -11.03681
O        102.72368       51.36116      -10.36970
O        100.85797       51.78151      -11.48420
H         99.52541       53.80284      -11.12574
H        101.82892       55.55848      -12.05882
H        102.50291       54.07774      -10.21271
H        103.31535       53.64758      -11.75688
N        100.20013       54.78480      -14.18402
C         99.82016       54.38701      -15.53409
C        101.01018       54.43443      -16.47125
O        101.37807       53.42418      -17.05617
C         99.11480       53.00737      -15.54567
C         97.90242       52.90165      -14.60448
C         96.83036       53.96517      -14.87804
C         95.58272       53.72346      -14.02152
N         94.60018       54.78734      -14.22467
H         99.74751       55.62502      -13.79174
H         99.09234       55.12945      -15.92748
H         99.82727       52.20325      -15.26492
H         98.77525       52.80077      -16.58456
H         98.23601       52.98497      -13.54675
H         97.46334       51.89006      -14.74778
H         96.54040       53.94138      -15.95117
H         97.23939       54.96871      -14.63439
H         95.86307       53.68857      -12.94531
H         95.13284       52.74421      -14.30073
H         94.99639       55.70137      -13.90495
H         94.33715       54.85189      -15.23490
H         93.74460       54.57585      -13.66255
N        101.63441       55.62229      -16.68538
C        102.74467       55.79684      -17.61333
C        103.99174       56.32516      -16.92664
O        104.95644       56.60343      -17.62628
C        102.28970       56.65480      -18.81495
C        101.75039       58.03145      -18.53801
O        101.72021       58.50979      -17.41552
O        101.24405       58.72218      -19.57566
H        101.27659       56.45063      -16.18668
H        103.04393       54.82360      -18.06084
H        101.47137       56.09353      -19.31629
H        103.12460       56.74692      -19.54285
N        104.08663       56.40933      -15.56521
C        105.29366       56.83729      -14.88334
C        105.92089       55.65634      -14.17626
O        106.26803       54.71634      -14.87795
H        103.30041       56.11413      -14.96898
H        105.04830       57.69500      -14.23731
H        106.05776       57.20693      -15.60122
N        106.18039       55.58862      -12.83735
C        105.84543       56.57808      -11.81640
C        105.23341       55.86980      -10.61530
O        105.78018       54.85519      -10.20370
C        107.12487       57.29558      -11.35420
C        107.76463       58.06979      -12.47977
N        109.02882       57.79621      -12.87524
O        107.13699       58.95960      -13.03517
H        106.71010       54.76081      -12.51799
H        105.15888       57.35539      -12.18832
H        107.84125       56.55499      -10.93674
H        106.86698       58.01751      -10.54796
H        109.57771       57.05516      -12.41623
H        109.46227       58.32995      -13.64299
N        104.16529       56.34926       -9.92005
C        103.49659       57.61054      -10.20997
C        102.51955       58.00283       -9.11896
O        102.34287       57.26005       -8.16162
H        103.87875       55.79997       -9.09539
H        102.98039       57.55536      -11.19135
H        104.26107       58.41652      -10.24541
N        101.88571       59.20925       -9.17234
C        101.04788       59.69945       -8.08099
C         99.64503       60.02327       -8.57088
O         99.39163       59.91183       -9.76427
C        101.75318       60.93190       -7.47151
C        101.31535       61.23843       -6.06354
C        100.68101       62.44773       -5.74300
C        101.57712       60.30635       -5.04342
C        100.30677       62.71442       -4.42076
C        101.20952       60.57696       -3.72565
C        100.57154       61.78323       -3.40886
O        100.21507       62.05833       -2.13832
H        102.06109       59.82989       -9.97878
H        100.95773       58.91325       -7.30307
H        101.62926       61.79916       -8.15774
H        102.84493       60.72850       -7.39857
H        100.47356       63.17971       -6.51320
H        102.07951       59.37269       -5.26702
H         99.81424       63.64786       -4.18158
H        101.42632       59.84965       -2.95302
H        100.39190       61.44329       -1.41174
N         98.66618       60.41517       -7.70166
C         97.30754       60.72558       -8.14896
C         97.31902       61.91239       -9.10451
O         98.27769       62.67184       -9.10341
C         96.35154       60.95812       -6.92958
C         96.70604       62.25721       -6.15101
C         94.87329       60.95809       -7.36198
C         95.92272       62.42985       -4.84762
H         98.88453       60.44759       -6.69652
H         96.95540       59.82423       -8.69901
H         96.48389       60.08326       -6.25466
H         96.52713       63.14737       -6.79342
H         97.77928       62.24662       -5.87832
H         94.64034       60.03783       -7.93861
H         94.19738       60.96344       -6.48388
H         94.63708       61.84949       -7.97526
H         96.10871       61.56829       -4.17221
H         96.25814       63.35770       -4.33756
H         94.83410       62.52806       -5.03217
N         96.28870       62.10798       -9.97547
C         96.23933       63.24710      -10.89083
C         95.08034       63.14882      -11.87061
O         94.19167       62.33131      -11.69433
C         96.08933       64.56059      -10.08705
O         94.94441       64.48863       -9.27925
H         95.54209       61.40048       -9.99946
H         97.17438       63.25427      -11.49177
H         96.00484       65.42827      -10.77796
H         96.97637       64.72149       -9.44031
H         94.90961       65.32951       -8.75422
N         95.02419       64.01321      -12.92771
C         93.87598       64.14550      -13.81544
C         92.71175       64.63636      -12.98327
O         91.66865       63.99806      -12.94257
C         93.59061       62.84809      -14.59459
H         95.80801       64.66651      -13.07341
H         94.10274       64.93417      -14.56690
H         94.48589       62.55537      -15.18265
H         93.31602       62.00578      -13.92800
H         92.74707       63.00863      -15.29939
N         92.87766       65.78324      -12.25365
C         91.95228       66.34595      -11.27434
C         91.04083       65.30597      -10.65117
O         89.82489       65.43466      -10.70265
C         91.21178       67.53038      -11.89593
H         93.76811       66.29375      -12.36453
H         92.56321       66.73272      -10.42808
H         90.58491       67.18589      -12.74583
H         90.56637       68.02174      -11.13768
H         91.94409       68.27704      -12.27132
N         91.59685       64.21037      -10.06215
C         90.80797       63.12197       -9.51154
C         90.04782       63.60872       -8.29339
O         88.82894       63.51598       -8.27165
C         91.72714       61.92682       -9.15394
C         91.00055       60.58310       -8.96826
C         90.49898       60.00992      -10.27627
O         89.53060       60.62227      -10.98305
O         90.97164       58.96723      -10.70115
H         92.62270       64.12423      -10.06948
H         90.11265       62.79757      -10.30689
H         92.29482       62.17547       -8.23309
H         92.47107       61.76170       -9.95947
H         90.17259       60.66973       -8.23437
H         91.74692       59.86625       -8.55960
N         90.72436       64.17574       -7.25141
C         90.08620       64.69725       -6.06015
H         88.98555       64.55803       -6.07288
H         90.49863       64.18275       -5.16701
H         90.30282       65.78356       -5.97517
H         91.75038       64.26641       -7.30764
Ca       100.11167       60.65320      -19.35362
O         97.04380       60.78902      -20.73695
H         96.25881       60.22810      -20.95962
H         96.66104       61.67219      -20.50516
O        102.46919       62.06644      -20.16556
H        103.22508       61.63845      -19.69054
H        102.67970       61.95443      -21.12628
O         99.41343       61.97539      -22.44589
H         99.58594       61.89367      -23.41750
H         98.85039       62.78530      -22.36136
O         97.98006       59.94506      -17.51497
H         97.22729       60.54513      -17.28463
H         98.47504       59.82481      -16.66590
O         98.39665       57.87919      -20.52657
H         98.78408       57.02358      -20.21312
H         97.54876       57.96684      -20.02282
O        101.14629       59.07814      -22.40281
H        102.12222       58.91150      -22.41957
H        100.99545       59.74378      -23.11905
O         99.02980       63.34113      -19.33590
H         99.41202       63.38167      -18.42313
H         98.94454       64.28649      -19.61505

Ca 1.0



