%chk=apoCaM-CA-Ng.loop3.water2.frame596.chk
%nprocshared=20
%mem=10GB
%nosave
#b3lyp/svp scf=(tight,noincore,xqc) Test 
#IOP(5/87=12) Density=Current Pop=(MK,readradii) iop(6/33=2) iop(6/42=6)

apoCaM-CA-Ng.loop3.water2.frame596 

   0  1 
C         45.85881      113.09531       71.41575
C         46.45813      113.93117       70.32245
O         46.23116      113.63034       69.15916
H         44.75200      113.10841       71.32548
H         46.21935      112.04951       71.32861
H         46.13221      113.48257       72.42001
N         47.22412      115.01755       70.62243
C         47.78697      115.89192       69.60017
C         48.79208      115.12479       68.75689
O         49.77175      114.63083       69.29890
C         48.43689      117.12023       70.26787
C         48.76528      118.24093       69.32168
O         49.20523      119.28496       69.77274
O         48.50940      118.14975       68.00259
H         47.37524      115.25015       71.61666
H         46.94124      116.26165       68.97783
H         49.34040      116.81682       70.84047
H         47.70327      117.54082       70.98197
N         48.58345      114.95178       67.42175
C         49.45786      114.13568       66.57832
C         50.88609      114.65435       66.48405
O         51.74987      113.88805       66.08002
C         48.86088      113.98767       65.15852
C         48.79810      115.32668       64.39190
C         48.06466      115.17517       63.05610
C         47.97701      116.52510       62.32964
N         47.20611      116.40888       61.09332
H         47.72912      115.36019       67.01513
H         49.49223      113.12394       67.04186
H         47.83487      113.57130       65.26257
H         49.46376      113.26199       64.56873
H         49.82784      115.70440       64.21002
H         48.25302      116.08406       64.99191
H         47.03454      114.80621       63.25514
H         48.59284      114.43750       62.41339
H         49.00126      116.89389       62.09868
H         47.48054      117.26830       62.98852
H         47.15938      117.34594       60.63152
H         47.66429      115.72956       60.44411
H         46.23218      116.09287       61.30870
N         51.19270      115.95673       66.74674
C         52.53308      116.51683       66.58210
C         53.05896      117.18977       67.84688
O         54.21036      117.60315       67.84289
C         52.52911      117.48563       65.38128
C         51.46052      118.54204       65.48018
O         51.44078      119.39827       66.51429
O         50.58962      118.61228       64.62754
H         50.42948      116.59837       67.00277
H         53.26328      115.71184       66.34616
H         52.34220      116.89034       64.46035
H         53.52551      117.96577       65.27470
N         52.29534      117.33400       68.96499
C         52.77196      117.94065       70.19383
C         53.21072      119.37877       70.02494
O         54.28871      119.71457       70.49290
H         51.32660      116.99187       68.97531
H         53.59952      117.33414       70.62370
H         51.93624      117.93212       70.92770
N         52.39158      120.29513       69.43264
C         52.65007      121.73863       69.44790
C         51.48650      122.53488       68.85865
O         50.59164      121.96743       68.24714
C         53.97568      122.16795       68.74947
C         53.92560      122.15381       67.23880
N         53.80558      121.00108       66.54871
O         54.00781      123.21126       66.63047
H         51.50418      119.94475       69.05052
H         52.73062      122.01395       70.52313
H         54.84593      121.57914       69.09787
H         54.17870      123.21660       69.05760
H         53.76203      120.10043       67.04052
H         53.76795      121.01288       65.51792
N         51.45687      123.88688       69.00432
C         50.44199      124.74326       68.41759
C         49.04421      124.39036       68.87594
O         48.80751      124.31259       70.07316
H         52.20322      124.34443       69.54936
H         50.51419      124.69606       67.30901
H         50.65417      125.79098       68.72114
N         48.04674      124.23124       67.95759
C         46.65383      123.98558       68.32519
C         46.43304      122.56023       68.83104
O         47.37086      121.77728       68.84925
C         45.68177      124.33325       67.16610
C         45.69962      123.38686       65.98751
C         46.67383      123.48276       64.97866
C         44.69344      122.41230       65.87138
C         46.64859      122.61288       63.88616
C         44.67242      121.54324       64.78079
C         45.65169      121.64085       63.78199
O         45.64519      120.81533       62.71676
H         48.28437      124.39533       66.97373
H         46.39535      124.69992       69.13900
H         45.82936      125.37809       66.81594
H         44.65654      124.32831       67.59214
H         47.44251      124.23893       65.01099
H         43.92402      122.32025       66.62851
H         47.40168      122.70039       63.11344
H         43.89108      120.80182       64.71906
H         44.97387      120.13110       62.59676
N         45.19377      122.17291       69.26662
C         44.84203      120.86247       69.81754
C         44.96746      119.73082       68.79725
O         46.05787      119.48213       68.30921
C         45.64849      120.54792       71.12102
C         45.20370      119.17909       71.71158
C         45.45420      121.68303       72.14563
C         45.93932      118.76888       72.98872
H         44.43561      122.87014       69.25072
H         43.77259      120.91366       70.12330
H         46.73193      120.48204       70.88370
H         45.40398      118.38468       70.96336
H         44.11158      119.18834       71.91895
H         45.78741      122.65481       71.72618
H         44.38575      121.76636       72.43806
H         46.06631      121.51235       73.05371
H         47.03658      118.76157       72.82644
H         45.69851      119.44957       73.82904
H         45.61516      117.74771       73.28257
N         43.89290      118.92201       68.53609
C         43.99496      117.65289       67.81311
C         43.04357      117.51784       66.62282
O         43.05284      116.45697       66.01237
C         43.74816      116.51076       68.81741
O         42.44767      116.56922       69.34444
H         42.98873      119.14453       68.97941
H         45.02554      117.51045       67.41990
H         44.50651      116.55167       69.63397
H         43.88729      115.52350       68.32818
H         42.50476      117.05203       70.21055
N         42.22018      118.52520       66.20579
C         41.33644      118.40277       65.03746
C         42.15352      118.05718       63.79895
O         43.18559      118.68052       63.60983
C         40.58615      119.71776       64.80977
H         42.24038      119.42185       66.71366
H         40.57339      117.62214       65.23397
H         39.90128      119.62181       63.94104
H         39.97723      119.96358       65.70583
H         41.29723      120.54922       64.61774
N         41.83073      117.06622       62.91562
C         40.57243      116.32487       62.87421
C         39.46342      117.23424       62.33642
O         39.74693      117.93280       61.37192
C         40.70647      115.14904       61.89441
H         42.52225      116.86670       62.17393
H         40.38144      115.86066       63.85702
H         40.94332      115.50355       60.86744
H         41.51756      114.46717       62.22847
H         39.75796      114.57009       61.86052
N         38.17100      117.27390       62.78854
C         37.59212      116.45395       63.84767
C         36.97143      117.28460       64.96264
O         36.55289      116.69386       65.94961
C         36.54096      115.46526       63.26953
C         35.20681      116.07165       62.77167
C         35.33442      116.94655       61.55990
O         35.78293      116.49526       60.51823
O         34.93398      118.23191       61.61184
H         37.54155      117.91666       62.28933
H         38.37293      115.83144       64.31043
H         36.26983      114.76034       64.08615
H         37.00513      114.85983       62.46036
H         34.72606      116.64129       63.59584
H         34.52399      115.23678       62.50341
N         36.83492      118.63965       64.88085
C         36.19147      119.40263       65.92753
H         35.15205      119.03735       66.07692
H         36.76101      119.30234       66.87476
H         36.14850      120.47546       65.64336
H         37.16259      119.15804       64.05516
Ca        48.69154      120.01373       66.73594
O         46.46782      118.88960       65.17877
H         46.25586      117.93993       65.00023
H         47.18408      119.11461       64.53252
O         49.91199      122.26816       65.05508
H         50.81757      122.11229       65.42335
H         49.77756      123.24543       65.13489

Ca 1.0



