%chk=apoCaM-CA-Ng.loop2.water3.frame48.chk
%nprocshared=20
%mem=10GB
%nosave
#b3lyp/svp scf=(tight,noincore,xqc) Test 
#IOP(5/87=12) Density=Current Pop=(MK,readradii) iop(6/33=2) iop(6/42=6)

apoCaM-CA-Ng.loop2.water3.frame48 

   -2  1 
C         69.35580       54.08522       72.15563
C         70.60283       54.54591       72.85792
O         71.42187       55.20410       72.23405
H         68.78621       54.96707       71.79400
H         69.62463       53.44445       71.29029
H         68.69740       53.50131       72.83412
N         70.80566       54.23904       74.16931
C         71.96328       54.67872       74.94325
C         72.77170       53.49162       75.44467
O         73.98914       53.54820       75.37502
C         71.48923       55.55018       76.11761
C         72.65106       56.13949       76.87293
O         72.81784       55.86535       78.18017
O         73.44556       56.87288       76.30464
H         70.07884       53.69026       74.65158
H         72.63197       55.31462       74.31964
H         70.85601       54.94705       76.80410
H         70.87640       56.39003       75.72397
N         72.16169       52.37727       75.94390
C         72.85203       51.18711       76.42583
C         73.81087       50.60949       75.38999
O         74.94284       50.28965       75.72874
C         73.52869       51.46775       77.77454
H         71.13368       52.33699       75.96219
H         72.07479       50.41242       76.61383
H         74.32485       52.23380       77.66960
H         72.77340       51.83479       78.50210
H         73.97534       50.53575       78.18302
N         73.40978       50.44113       74.09479
C         74.20853       49.78983       73.05348
C         75.55134       50.46989       72.75991
O         76.31258       49.91036       71.98130
C         74.41536       48.29907       73.39319
C         73.11770       47.60865       73.72943
O         72.97628       47.14139       74.84787
O         72.09053       47.49920       72.85763
H         72.46334       50.75453       73.83097
H         73.62412       49.80864       72.10706
H         75.09913       48.21418       74.26548
H         74.89495       47.77510       72.54018
N         75.90875       51.68073       73.29231
C         77.18057       52.33602       73.00673
C         77.37093       52.69164       71.54022
O         78.46698       53.09997       71.18366
H         75.27142       52.16927       73.92478
H         77.99801       51.64953       73.31964
H         77.27304       53.26724       73.60765
N         76.37443       52.51831       70.62527
C         76.57371       52.63534       69.18708
C         76.85691       54.06176       68.75311
O         76.03553       54.94359       68.96175
C         75.35098       52.06404       68.44127
C         75.14745       50.60634       68.79703
N         76.09471       49.68246       68.50719
O         74.12326       50.25990       69.36503
H         75.45015       52.20570       70.94830
H         77.44114       51.99723       68.91215
H         75.50071       52.14125       67.34363
H         74.44597       52.65188       68.71494
H         76.96648       49.94633       68.02642
H         75.95847       48.69474       68.76446
N         78.02869       54.33869       68.11854
C         78.42979       55.64893       67.64189
C         77.59385       56.14821       66.48357
O         77.40440       55.41091       65.52622
H         78.70379       53.57184       67.97455
H         79.46349       55.55154       67.24352
H         78.46722       56.37761       68.47933
N         77.18399       57.45022       66.44725
C         76.59945       58.05527       65.24615
C         75.16420       57.62043       64.97400
O         74.67275       57.92308       63.89304
C         76.73377       59.60483       65.25563
C         75.95460       60.30818       66.37753
O         78.08962       59.98125       65.28440
H         77.44044       58.05063       67.24274
H         77.21091       57.71388       64.38002
H         76.32148       59.98656       64.29566
H         78.44487       59.80734       66.19404
H         74.87647       60.08942       66.28903
H         76.30504       59.99665       67.38250
H         76.08814       61.40699       66.28933
N         74.42746       56.92081       65.88174
C         73.07650       56.42219       65.61823
C         73.07370       54.90641       65.74030
O         74.12462       54.33447       66.01503
C         72.03230       57.09364       66.57211
C         72.27878       56.75522       68.06674
C         71.99526       58.61130       66.32744
C         71.18091       57.27776       68.99732
H         74.84292       56.70787       66.80123
H         72.75995       56.65853       64.57756
H         71.02695       56.70968       66.29805
H         73.25522       57.16007       68.40544
H         72.30017       55.65302       68.18709
H         71.82295       58.82545       65.25115
H         71.16936       59.09307       66.88779
H         72.94719       59.07527       66.64159
H         71.38925       56.94646       70.03569
H         71.14576       58.38570       69.00288
H         70.19087       56.87745       68.69070
N         71.92268       54.18651       65.60865
C         71.86089       52.76176       65.90090
C         71.14900       51.95780       64.80826
O         70.96855       50.76468       64.99525
C         71.21490       52.62072       67.29611
C         71.42388       51.28900       67.96689
O         71.00270       51.12727       69.23526
O         72.02228       50.37939       67.41484
H         71.03475       54.68116       65.42811
H         72.88927       52.34801       65.99742
H         70.13674       52.88366       67.24947
H         71.71518       53.34777       67.97160
N         70.77035       52.51161       63.61257
C         70.17530       51.69811       62.55339
C         68.75318       51.30457       62.93986
O         67.96934       52.21034       63.18285
C         70.12978       52.46449       61.21031
C         69.89033       51.49560       60.07483
C         70.91584       50.60359       59.70775
C         68.66755       51.45385       59.38573
C         70.72216       49.68521       58.67500
C         68.47402       50.52287       58.35679
C         69.50037       49.64127       58.00188
H         70.97847       53.50019       63.41709
H         70.84523       50.82560       62.41060
H         71.09682       52.97371       61.00739
H         69.34844       53.25538       61.25868
H         71.86907       50.62329       60.22227
H         67.86131       52.12400       59.65464
H         71.51974       49.00637       58.40053
H         67.52735       50.48095       57.83456
H         69.35085       48.92323       57.20588
N         68.31169       50.00919       63.00384
C         66.94118       49.64031       63.34280
C         66.47089       50.00715       64.74603
O         65.32644       49.69569       65.04686
C         66.92807       48.11477       63.18968
C         67.94410       47.90772       62.09094
C         69.05321       48.86083       62.52924
H         66.27271       50.10965       62.58478
H         67.35562       47.64539       64.10627
H         65.92133       47.68059       63.00501
H         68.26790       46.85699       61.93882
H         67.49863       48.28809       61.14122
H         69.64169       48.43962       63.37281
H         69.69353       49.06520       61.64933
N         67.26473       50.65303       65.65684
C         66.81192       50.97926       67.00682
C         66.64190       52.48245       67.20710
O         66.16219       52.86739       68.26490
C         67.81882       50.46751       68.05561
C         68.21815       48.98965       67.92597
C         69.16501       48.63608       69.04510
O         68.77318       48.68080       70.20042
O         70.45946       48.33650       68.80628
H         68.22272       50.92662       65.40496
H         65.82234       50.51067       67.19890
H         67.39574       50.65361       69.06772
H         68.74424       51.06570       67.95500
H         68.72074       48.83185       66.94695
H         67.32479       48.33150       67.97998
N         67.02264       53.39202       66.26257
C         66.88677       54.82500       66.42666
H         66.40887       55.10101       67.38936
H         67.89235       55.29491       66.38523
H         66.26822       55.23009       65.59866
H         67.44926       53.07924       65.38506
Ca        71.73174       47.95299       70.65711
O         73.18481       47.49611       67.04597
H         73.48617       46.56048       66.92701
H         72.33081       47.54622       66.54742
O         71.28838       45.08357       69.73531
H         72.02285       45.15992       70.39524
H         70.46191       45.12609       70.27918
O         74.60298       46.57933       69.94160
H         74.97289       46.43458       69.03500
H         75.36121       46.38815       70.54849

Ca 1.0



