%chk=apoCaM-CA-Ng.loop1.water3.frame18.chk
%nprocshared=20
%mem=10GB
%nosave
#b3lyp/svp scf=(tight,noincore,xqc) Test 
#IOP(5/87=12) Density=Current Pop=(MK,readradii) iop(6/33=2) iop(6/42=6)

apoCaM-CA-Ng.loop1.water3.frame18 

   0  1 
C         57.21584       40.16714       46.53951
C         55.98452       40.81913       45.98725
O         55.65890       41.91116       46.42993
H         58.09378       40.82338       46.36774
H         57.08647       40.01254       47.63224
H         57.40280       39.18189       46.06463
N         55.23181       40.19589       45.03384
C         53.98454       40.75362       44.52033
C         52.82395       39.87723       44.94656
O         51.99542       39.50065       44.12813
C         54.06680       40.99264       42.99316
C         54.27327       39.75843       42.14342
O         54.35177       38.52688       42.68491
O         54.35864       39.87864       40.93211
H         55.53353       39.26961       44.69979
H         53.79404       41.74417       44.98657
H         54.90769       41.69261       42.79838
H         53.12788       41.48617       42.65906
N         52.72425       39.50541       46.25331
C         51.63787       38.69876       46.78300
C         51.27551       39.24529       48.15281
O         52.12499       39.17067       49.03004
C         52.05963       37.22207       46.79625
C         50.91994       36.29706       47.24478
C         51.24515       34.83740       46.91794
C         50.11206       33.90664       47.36506
N         50.35300       32.53935       46.90609
H         53.47829       39.78297       46.90062
H         50.78599       38.71970       46.09031
H         52.96041       37.05940       47.42736
H         52.32465       36.96556       45.74558
H         49.99629       36.55239       46.68426
H         50.73024       36.43667       48.33156
H         52.19500       34.53011       47.40653
H         51.36655       34.75077       45.81478
H         49.14332       34.25824       46.94419
H         50.03999       33.92624       48.47527
H         50.34182       32.51204       45.85984
H         51.27495       32.19279       47.25683
H         49.59274       31.91800       47.26468
N         50.09099       39.85506       48.45557
C         48.94855       40.08294       47.57097
C         48.31796       38.76519       47.13152
O         48.27132       38.49436       45.93995
C         49.29811       41.02176       46.39233
C         49.84893       42.34515       46.82475
O         50.01990       42.66157       48.11961
O         50.11368       43.18145       45.97742
H         49.99643       40.21679       49.41859
H         48.16340       40.62751       48.14411
H         48.36229       41.21107       45.82472
H         50.01871       40.59094       45.68414
N         47.77562       37.88156       48.02179
C         47.69280       38.10577       49.45602
C         46.25782       38.15450       49.92703
O         45.35763       37.88759       49.14153
H         47.37211       37.00442       47.65540
H         48.15292       39.05370       49.74414
H         48.23457       37.29479       49.98830
N         45.93679       38.47664       51.21249
C         46.92056       38.88270       52.21783
C         47.48872       40.29135       51.97973
O         48.39888       40.66904       52.70799
C         46.32415       38.75262       53.63945
C         45.14077       39.63936       53.93931
O         44.54764       39.55228       55.14474
O         44.70547       40.42715       53.11411
H         44.94414       38.40896       51.48495
H         47.76044       38.15425       52.18566
H         47.11736       38.96515       54.38850
H         46.00420       37.69664       53.77989
N         47.01850       41.12669       51.00326
C         47.58687       42.45621       50.77641
C         46.89443       43.23494       49.66426
O         45.93722       42.74133       49.08219
H         46.23936       40.80652       50.41221
H         48.66204       42.34687       50.51673
H         47.50680       43.05267       51.71172
N         47.33835       44.48255       49.31797
C         46.70207       45.31286       48.29103
C         47.65246       45.48847       47.07351
O         48.73153       46.33089       47.38929
C         46.22796       46.65104       48.93112
C         45.40268       47.52655       47.98459
O         47.31965       47.40518       49.39848
H         48.15747       44.86155       49.81698
H         45.80080       44.78561       47.91225
H         45.54881       46.40068       49.78025
H         47.49768       47.12798       50.33423
H         46.01010       47.89105       47.13198
H         44.52602       46.96103       47.60382
H         45.03533       48.42080       48.53078
N         46.94852       45.97956       45.87649
C         47.74871       45.93592       44.63391
C         47.66901       47.31578       44.01862
O         46.58966       47.72093       43.60730
C         47.21823       44.86857       43.61112
C         47.29590       43.43629       44.19291
C         47.99559       44.95223       42.27586
C         46.59374       42.38181       43.33202
H         46.01400       45.52626       45.75052
H         48.81499       45.70781       44.86629
H         46.14949       45.10068       43.40325
H         46.80509       43.40673       45.18772
H         48.35610       43.14698       44.31236
H         49.07059       44.72150       42.43374
H         47.58351       44.25575       41.51990
H         47.91578       45.96319       41.82536
H         47.06365       42.27929       42.33408
H         46.66182       41.39285       43.83232
H         45.52076       42.64117       43.20925
N         48.77799       48.10206       43.94402
C         48.77694       49.43179       43.34268
C         49.85213       49.57833       42.26523
O         49.94623       50.66057       41.70548
C         48.93600       50.50911       44.44789
C         50.26739       50.43715       45.20901
O         47.85471       50.45142       45.34700
H         49.65194       47.75704       44.36921
H         47.80070       49.63407       42.84890
H         48.89519       51.50689       43.95906
H         47.93500       49.61339       45.87393
H         51.12465       50.54452       44.51198
H         50.31437       51.26090       45.95191
H         50.35831       49.47634       45.75307
N         50.69516       48.55237       41.92536
C         51.79695       48.63919       40.96738
C         52.86216       49.60194       41.44497
O         52.60645       50.79399       41.54719
C         51.34690       49.00688       39.53127
C         50.35132       47.98810       38.98330
O         52.46391       49.02462       38.67532
H         50.58048       47.63424       42.37507
H         52.25985       47.62785       40.90598
H         50.85067       50.00356       39.51003
H         52.88579       49.92068       38.75614
H         50.81140       46.97668       38.96182
H         49.43509       47.96021       39.60843
H         50.06612       48.26936       37.94728
N         54.11145       49.14154       41.72355
C         55.20949       50.02578       42.06632
C         55.26791       50.16429       43.56981
O         55.08408       51.26898       44.06233
C         56.52104       49.53047       41.40540
C         56.34887       49.46143       39.87172
C         57.61901       49.03593       39.12368
C         57.34197       48.99731       37.60873
N         58.54049       48.64648       36.84850
H         54.30479       48.13006       41.65431
H         55.01998       51.04112       41.64707
H         56.79461       48.52330       41.79006
H         57.34350       50.23606       41.65428
H         56.04503       50.46506       39.50226
H         55.54330       48.73593       39.62427
H         57.94354       48.02862       39.46601
H         58.43049       49.76590       39.33332
H         56.98288       49.99546       37.27173
H         56.54261       48.25180       37.39588
H         59.28912       49.35829       37.01115
H         58.88213       47.69834       37.12642
H         58.30417       48.63583       35.82925
N         55.49503       49.08343       44.36650
C         55.52663       49.15436       45.82226
C         56.95652       48.97325       46.27457
O         57.27508       48.02644       46.98222
C         54.57029       48.10620       46.43598
C         53.09540       48.41687       46.15040
C         52.20632       47.38623       46.78572
O         52.26748       46.21899       46.43319
O         51.33749       47.74654       47.74982
H         55.68174       48.17066       43.92369
H         55.21565       50.15579       46.19573
H         54.69961       48.10739       47.54178
H         54.83206       47.09459       46.05327
H         52.89761       48.44051       45.05762
H         52.85253       49.41495       46.57728
N         57.88368       49.89612       45.90111
C         59.26622       49.81379       46.30864
H         59.82852       50.68079       45.90110
H         59.33428       49.83501       47.41697
H         59.71852       48.87732       45.92123
H         57.59528       50.69592       45.31656
Ca        50.19610       44.86904       48.29036
O         53.57290       45.68597       49.33431
H         53.72705       46.14965       50.19533
H         54.44067       45.25874       49.12258
O         52.90756       43.04783       47.69516
H         53.64215       42.69977       48.25990
H         53.35793       43.42492       46.89844
O         51.77754       43.46430       50.76192
H         52.52891       42.94520       51.14461
H         51.06254       43.40888       51.44459

Ca 1.0



