%chk=apoCaM-CA-Ng.loop2.water2.frame549.chk
%nprocshared=20
%mem=10GB
%nosave
#b3lyp/svp scf=(tight,noincore,xqc) Test 
#IOP(5/87=12) Density=Current Pop=(MK,readradii) iop(6/33=2) iop(6/42=6)

apoCaM-CA-Ng.loop2.water2.frame549 

   -2  1 
C         68.54307       41.63550       70.16537
C         67.39955       42.59677       70.02225
O         67.56467       43.77593       70.30059
H         69.45653       42.15454       70.52554
H         68.27223       40.84312       70.89511
H         68.76134       41.16427       69.18391
N         66.19016       42.14513       69.59254
C         65.01985       43.00212       69.44629
C         65.26238       44.08886       68.41556
O         65.58574       43.77573       67.27809
C         63.79487       42.16051       69.03119
C         62.55630       43.00678       68.89673
O         61.97015       43.07148       67.82781
O         62.09301       43.70278       69.95278
H         66.09907       41.13887       69.37956
H         64.78847       43.45859       70.43480
H         63.60513       41.38435       69.80369
H         64.00331       41.64685       68.06612
N         65.04109       45.39499       68.73908
C         65.13411       46.47586       67.76326
C         66.57951       46.73390       67.35416
O         67.46597       46.25810       68.05032
C         64.48969       47.73788       68.35716
H         64.70943       45.61132       69.69182
H         64.54172       46.16731       66.89317
H         64.45267       48.58893       67.66143
H         63.43790       47.51181       68.63426
H         65.04045       48.06148       69.26428
N         66.94390       47.48038       66.26384
C         66.03436       48.06163       65.26618
C         65.26378       46.98336       64.50358
O         65.53741       45.80106       64.66944
C         66.79911       49.05676       64.35868
C         67.93602       48.39272       63.66496
O         69.09161       48.62886       63.98490
O         67.67047       47.49058       62.71851
H         67.95758       47.62947       66.14072
H         65.28840       48.68333       65.77710
H         67.20332       49.85626       65.01638
H         66.13486       49.53668       63.60847
N         64.20966       47.33339       63.71096
C         63.26691       46.36791       63.15560
C         62.45981       45.69262       64.26258
O         62.69532       45.98130       65.42420
H         64.01789       48.33259       63.54861
H         63.80632       45.61404       62.54434
H         62.55712       46.91397       62.50042
N         61.47502       44.78091       64.02606
C         60.97992       44.40366       62.71099
C         61.66216       43.15253       62.17778
O         61.37743       42.79002       61.04447
C         59.44999       44.18450       62.79631
C         58.72824       45.43878       63.23177
N         58.03568       45.47772       64.39572
O         58.76952       46.43191       62.52128
H         61.00686       44.36624       64.84931
H         61.17486       45.21718       61.98180
H         59.24856       43.36061       63.51822
H         59.04202       43.87376       61.81076
H         57.99182       44.65723       65.01758
H         57.54613       46.33857       64.68365
N         62.56067       42.42912       62.91361
C         63.18766       41.21806       62.39799
C         64.19533       41.46227       61.28214
O         64.65953       40.49066       60.70381
H         62.77148       42.70038       63.88476
H         62.38465       40.53781       62.03971
H         63.72559       40.69854       63.21977
N         64.61094       42.71684       60.94788
C         65.57678       43.01254       59.88573
C         66.91375       42.31981       60.12281
O         67.44109       42.39954       61.22357
C         65.79414       44.54265       59.76213
C         64.51617       45.24820       59.27688
O         66.20604       45.06987       60.99800
H         64.23433       43.50705       61.48667
H         65.17337       42.66214       58.91009
H         66.58849       44.71770       58.99991
H         66.40770       46.03029       60.85128
H         64.70696       46.33504       59.15406
H         64.20929       44.83904       58.29079
H         63.67716       45.12184       59.99125
N         67.55020       41.67888       59.09225
C         68.85185       41.02917       59.23048
C         69.94001       41.96222       58.72808
O         69.98199       42.28563       57.54938
C         68.88766       39.66916       58.47232
C         70.29987       39.01506       58.44567
C         67.83863       38.69722       59.03222
C         70.88118       38.65875       59.81553
H         67.13162       41.72363       58.15056
H         69.04081       40.82466       60.30592
H         68.62350       39.86572       57.40849
H         71.00957       39.70185       57.93748
H         70.26098       38.09020       57.83046
H         67.85535       37.74751       58.45604
H         68.03095       38.47485       60.10219
H         66.82111       39.13158       58.94505
H         71.89923       38.23489       59.68172
H         70.96598       39.55609       60.45595
H         70.25699       37.90111       60.32906
N         70.85020       42.44154       59.61822
C         71.93724       43.35377       59.30500
C         73.24539       42.94886       59.98913
O         74.21816       43.67557       59.83564
C         71.49888       44.78244       59.64827
C         71.17377       45.01825       61.08907
O         70.26716       44.27042       61.73404
O         71.66188       45.97455       61.66779
H         70.71306       42.20422       60.60131
H         72.12224       43.36346       58.20818
H         70.58045       45.00047       59.05952
H         72.27703       45.50915       59.32727
N         73.37324       41.77552       60.68786
C         74.63737       41.28407       61.21899
C         74.48713       40.89676       62.69179
O         74.67472       39.72753       63.01124
C         75.10698       40.06544       60.37797
C         75.32572       40.39376       58.91701
C         74.23907       40.65284       58.05991
C         76.62874       40.42924       58.39143
C         74.45401       40.96058       56.71466
C         76.83987       40.73838       57.04449
C         75.75397       41.00683       56.20755
H         72.57662       41.13344       60.77240
H         75.43722       42.05191       61.13795
H         74.38596       39.22061       60.45043
H         76.06862       39.72127       60.81966
H         73.22288       40.61197       58.42468
H         77.48330       40.22760       59.02504
H         73.61116       41.16174       56.06578
H         77.84692       40.77111       56.65026
H         75.91952       41.24672       55.16553
N         74.17183       41.80030       63.67196
C         74.08039       41.45763       65.08736
C         73.09128       40.35276       65.43008
O         73.12714       39.86855       66.55196
C         73.63103       42.76541       65.74605
C         74.28964       43.79809       64.85910
C         74.03552       43.22600       63.46381
H         75.10342       41.15258       65.40486
H         72.53204       42.88979       65.60185
H         73.85671       42.84011       66.83129
H         73.94212       44.84304       65.00077
H         75.38425       43.75378       65.06562
H         73.00618       43.43468       63.10051
H         74.79608       43.64648       62.77257
N         72.15155       39.93482       64.53526
C         71.22259       38.84831       64.81110
C         71.97497       37.54442       64.67753
O         72.04027       36.78766       65.63668
C         70.01398       38.87552       63.84189
C         69.05701       40.06155       64.08528
C         69.69591       41.39912       63.87996
O         69.78042       42.27760       64.89475
O         70.15297       41.69286       62.79337
H         72.09527       40.39904       63.62118
H         70.80577       38.94733       65.83954
H         69.41213       37.95516       64.00941
H         70.35684       38.86673       62.78585
H         68.66506       40.00601       65.12308
H         68.19767       39.97897       63.38521
N         72.59115       37.22853       63.50452
C         73.34915       36.01074       63.33005
H         74.18819       35.98072       64.05731
H         72.69202       35.12850       63.47911
H         73.77029       35.97452       62.30249
H         72.53368       37.88145       62.70785
Ca        68.75478       45.56489       62.66015
O         66.21185       42.63868       63.98387
H         65.38425       42.81518       64.49747
H         66.18343       41.66727       63.79437
O         68.46566       44.70896       65.59653
H         69.11154       45.03070       66.27410
H         67.86145       44.10666       66.09749

Ca 1.0



