%chk=apoCaM-CA-Ng.loop1.water1.frame803.chk
%nprocshared=20
%mem=10GB
%nosave
#b3lyp/svp scf=(tight,noincore,xqc) Test 
#IOP(5/87=12) Density=Current Pop=(MK,readradii) iop(6/33=2) iop(6/42=6)

apoCaM-CA-Ng.loop1.water1.frame803 

   0  1 
C         55.57445       92.80389       63.30096
C         55.41112       94.18324       63.86547
O         56.29967       94.67164       64.54758
H         56.54316       92.36099       63.60906
H         54.75102       92.15455       63.67237
H         55.52228       92.84787       62.19326
N         54.24881       94.84761       63.64908
C         53.92963       96.14517       64.23272
C         52.96699       95.93284       65.38367
O         52.03307       95.15237       65.25554
C         53.42454       97.19018       63.19458
C         52.21485       96.80833       62.37873
O         51.74345       95.55111       62.42520
O         51.67264       97.64027       61.66681
H         53.52542       94.33851       63.12585
H         54.83969       96.60651       64.67233
H         54.24531       97.45313       62.49489
H         53.16414       98.10872       63.76868
N         53.15142       96.61030       66.55530
C         52.31173       96.44231       67.73464
C         51.29667       97.56612       67.74975
O         51.22559       98.34309       68.69184
C         53.23389       96.35121       68.97934
C         52.50762       96.05939       70.30664
C         53.48908       95.79008       71.46915
C         54.41364       96.96241       71.85813
N         53.67197       98.10941       72.38364
H         53.89517       97.32426       66.59811
H         51.72931       95.49717       67.66161
H         53.81690       97.29306       69.06810
H         53.94769       95.51774       68.79610
H         51.89867       95.13991       70.17224
H         51.81743       96.88181       70.57924
H         54.12965       94.92585       71.18813
H         52.90514       95.49336       72.36731
H         55.04036       97.27641       70.99673
H         55.10730       96.60086       72.65020
H         54.35324       98.84556       72.68060
H         53.04670       98.51373       71.65166
H         53.11006       97.82120       73.21760
N         50.48048       97.71308       66.66645
C         49.49828       98.77648       66.53987
C         48.23070       98.43529       67.31507
O         48.00939       97.26101       67.57886
C         49.21204       99.06123       65.04268
C         48.63736       97.90593       64.25278
O         48.33152       96.73087       64.83669
O         48.45379       98.03691       63.05336
H         50.60962       97.07567       65.87148
H         49.97180       99.68944       66.95614
H         50.17899       99.34111       64.56807
H         48.52143       99.92387       64.94590
N         47.34720       99.37325       67.76486
C         47.51028      100.81527       67.65192
C         47.72540      101.40788       69.02452
O         47.73858      100.67032       69.99981
H         46.52508       99.04115       68.29494
H         46.60302      101.25103       67.18332
H         48.37355      101.09824       67.02516
N         47.93898      102.74432       69.18200
C         48.17894      103.33053       70.50201
C         46.93955      103.22095       71.36986
O         45.86828      102.96056       70.83793
C         48.57723      104.81356       70.38423
C         49.82871      104.98638       69.57124
O         49.80724      105.64496       68.54371
O         50.98151      104.41957       69.97534
H         47.96238      103.34156       68.34130
H         49.01164      102.76804       70.98252
H         48.76026      105.24127       71.39302
H         47.74105      105.37839       69.91357
N         47.00313      103.45745       72.71481
C         45.82726      103.43072       73.57162
C         45.41957      102.03532       74.01832
O         45.21830      101.84873       75.20961
H         47.90152      103.75049       73.12836
H         44.98529      103.93600       73.05362
H         46.03313      104.02991       74.48728
N         45.27848      101.00570       73.13509
C         44.80754       99.67730       73.50638
C         43.82784       99.14741       72.46584
O         43.65181       99.74133       71.41268
C         46.00352       98.69581       73.64760
C         46.86009       98.60165       72.38173
O         46.82677       99.10122       74.71115
H         45.54508      101.13814       72.15888
H         44.27785       99.71806       74.48379
H         45.61625       97.66758       73.84558
H         46.56614       98.56581       75.50613
H         46.25027       98.29911       71.50405
H         47.34000       99.57931       72.18122
H         47.66511       97.85100       72.52454
N         43.19836       97.96651       72.70494
C         42.40307       97.25235       71.71255
C         41.22840       98.07847       71.23093
O         41.08941       98.23240       70.02256
C         41.94145       95.86666       72.27156
C         43.13192       94.96899       72.73362
C         41.08162       95.10379       71.24340
C         44.18773       94.67979       71.65955
H         43.33838       97.54115       73.62948
H         43.04162       97.04595       70.82679
H         41.29819       96.03933       73.16328
H         42.72764       94.00189       73.10289
H         43.65756       95.42758       73.59434
H         40.16251       95.67409       70.99468
H         41.64112       94.92167       70.30314
H         40.75711       94.12866       71.66523
H         44.97498       94.02492       72.08815
H         43.74581       94.16017       70.78630
H         44.68427       95.61392       71.32455
N         40.33811       98.63016       72.09968
C         39.12845       99.31830       71.65784
C         37.91617       98.67869       72.31189
O         38.07794       97.92457       73.26680
C         39.25840      100.83486       71.94898
C         38.10922      101.68545       71.39633
O         39.37368      101.05097       73.33356
H         40.52218       98.54895       73.11345
H         39.01190       99.19650       70.55777
H         40.18183      101.17386       71.41807
H         40.17788      101.61365       73.48234
H         38.32929      102.76173       71.55670
H         37.99215      101.51380       70.30420
H         37.15438      101.46514       71.91432
N         36.66500       98.90978       71.83219
C         35.46230       98.36547       72.44038
C         34.79008       97.41191       71.46351
O         34.67093       96.23849       71.78230
C         34.56922       99.53614       72.92586
C         33.33144       99.06022       73.68508
O         34.17640      100.34796       71.84769
H         36.55549       99.49599       70.98987
H         35.72416       97.77596       73.34933
H         35.19069      100.13183       73.63892
H         34.20420      101.29109       72.15592
H         33.63327       98.45686       74.56749
H         32.75803       99.94145       74.04516
H         32.67517       98.45147       73.02914
N         34.33084       97.84766       70.25372
C         33.68218       96.98777       69.27270
C         34.35696       97.15070       67.91984
O         34.37935       98.25823       67.40127
C         32.19568       97.37753       69.17785
C         31.46685       96.59664       68.07428
C         29.99318       96.98815       67.98705
C         29.34665       96.34311       66.75445
N         27.93973       96.72028       66.64465
H         34.41888       98.84391       70.01531
H         33.72190       95.92067       69.58560
H         32.11266       98.46482       68.95721
H         31.71354       97.18343       70.16166
H         31.55611       95.50144       68.24914
H         31.93963       96.84524       67.10138
H         29.91246       98.09274       67.88728
H         29.46865       96.67126       68.91503
H         29.43181       95.23531       66.81357
H         29.88567       96.68633       65.84185
H         27.54628       96.31358       65.76559
H         27.40662       96.34791       67.46334
H         27.84806       97.76166       66.60519
N         34.89620       96.07406       67.27736
C         35.47335       96.15289       65.93621
C         36.99791       96.15008       65.99519
O         37.55834       97.14541       65.55604
C         34.89196       95.08190       64.97755
C         33.38222       95.26419       64.73988
C         32.81424       94.25160       63.77781
O         33.58901       93.29341       63.23047
O         31.62932       94.29783       63.48836
H         34.88162       95.16995       67.76480
H         35.20338       97.13055       65.47443
H         35.07139       94.05701       65.35216
H         35.40467       95.17956       63.99482
H         33.20106       96.27833       64.32129
H         32.83829       95.16763       65.70141
N         37.78654       95.15577       66.50307
C         37.36098       93.90038       67.08324
H         36.27758       93.74469       67.08063
H         37.82168       93.06581       66.51573
H         37.71090       93.85247       68.13560
H         38.80698       95.30939       66.48540
Ca        49.66580       94.91659       62.97960
O         49.26421       93.46950       65.87409
H         50.17016       93.11076       66.05035
H         49.04274       93.99397       66.68421

Ca 1.0



