%chk=apoCaM-CA-Ng.loop1.water3.frame757.chk
%nprocshared=20
%mem=10GB
%nosave
#b3lyp/svp scf=(tight,noincore,xqc) Test 
#IOP(5/87=12) Density=Current Pop=(MK,readradii) iop(6/33=2) iop(6/42=6)

apoCaM-CA-Ng.loop1.water3.frame757 

   0  1 
C         67.79537       40.48630        6.71379
C         68.40843       41.80994        6.36377
O         67.91165       42.49272        5.47993
H         66.90769       40.27747        6.08091
H         68.54322       39.67906        6.56196
H         67.48447       40.49250        7.78005
N         69.51251       42.22856        7.03567
C         70.20352       43.48548        6.78439
C         71.60902       43.20946        6.30275
O         72.35746       42.53532        6.98717
C         70.17031       44.40596        8.03342
C         70.06322       43.74392        9.39896
O         71.00068       42.94437        9.95639
O         69.05259       43.95672       10.05131
H         69.89715       41.60920        7.76646
H         69.71078       44.06296        5.97030
H         69.23070       44.99665        7.93323
H         70.99559       45.15017        7.99452
N         72.04278       43.71698        5.11166
C         73.40686       43.53862        4.64349
C         74.26709       44.64452        5.21950
O         74.03322       45.81042        4.93187
C         73.44242       43.46773        3.10316
C         74.86189       43.24153        2.55537
C         74.83710       43.01823        1.03699
C         76.25605       42.84140        0.47965
N         76.22644       42.56724       -0.95686
H         71.41508       44.32464        4.56233
H         73.78429       42.55286        4.99716
H         73.02338       44.39873        2.66199
H         72.79843       42.61441        2.79344
H         75.30920       42.34425        3.03718
H         75.49230       44.12601        2.79404
H         74.35676       43.88656        0.53522
H         74.24106       42.10477        0.81801
H         76.76414       41.99907        0.99982
H         76.83696       43.77075        0.66307
H         75.71876       41.67101       -1.13933
H         75.75550       43.34988       -1.46623
H         77.20716       42.47594       -1.30815
N         75.29069       44.32566        6.05874
C         76.15989       45.31450        6.69682
C         77.49235       44.67359        7.11730
O         77.60319       43.45716        7.04678
C         75.40094       45.95653        7.88623
C         74.96712       44.94595        8.91604
O         75.87582       44.19893        9.57317
O         73.78230       44.81744        9.17671
H         75.44401       43.32603        6.24879
H         76.40102       46.08856        5.94431
H         74.49950       46.47799        7.49886
H         76.00692       46.71865        8.39766
N         78.58485       45.37020        7.55219
C         78.76016       46.81290        7.63723
C         78.81089       47.50000        6.29214
O         78.58420       46.87658        5.26562
H         79.39843       44.80826        7.84586
H         79.75554       46.99359        8.09956
H         78.02041       47.28393        8.30312
N         79.15636       48.81699        6.23534
C         79.33546       49.54343        4.98292
C         80.45177       48.92135        4.15240
O         80.19585       48.56547        3.01080
C         79.51463       51.06355        5.23587
C         80.68001       51.48035        6.09553
O         81.82597       51.37375        5.69256
O         80.45314       52.05645        7.29183
H         79.31430       49.31431        7.12533
H         78.39143       49.47028        4.39541
H         78.58719       51.40839        5.74368
H         79.57819       51.60193        4.26543
N         81.70268       48.71987        4.66300
C         82.77689       48.09943        3.89971
C         82.56695       46.61583        3.65518
O         83.39507       46.02436        2.97582
H         81.91145       49.00800        5.62820
H         83.72895       48.19459        4.46609
H         82.89853       48.64214        2.93741
N         81.52028       45.93693        4.20673
C         81.29523       44.50451        4.06226
C         81.36979       43.86286        5.43966
O         81.44147       44.57996        6.42807
C         79.90177       44.25357        3.41665
C         79.70377       45.02378        2.10449
O         79.67149       42.88494        3.19863
H         80.86094       46.44256        4.80266
H         82.08692       44.05880        3.42031
H         79.12126       44.61585        4.11978
H         80.33309       42.57397        2.52590
H         80.45389       44.71546        1.34701
H         78.68624       44.82708        1.70962
H         79.78944       46.11521        2.27435
N         81.35246       42.51372        5.59293
C         81.42742       41.86532        6.90073
C         82.76892       42.17925        7.57380
O         82.77205       42.44253        8.76695
C         81.12583       40.33893        6.78150
C         79.67803       40.14674        6.22739
C         81.26682       39.64609        8.15239
C         79.27747       38.69324        5.97521
H         81.29988       41.92728        4.74731
H         80.61940       42.27550        7.55105
H         81.85871       39.88063        6.08116
H         79.56823       40.66632        5.25409
H         78.94294       40.60007        6.92943
H         80.54749       40.07507        8.88321
H         81.09124       38.55524        8.07227
H         82.29526       39.76320        8.55064
H         78.25351       38.66943        5.54355
H         79.97670       38.22172        5.25367
H         79.25252       38.10580        6.91401
N         83.92449       42.26992        6.84816
C         85.22025       42.66328        7.41794
C         86.29372       41.64181        7.05089
O         86.02229       40.71700        6.29981
C         85.58648       44.08450        6.88541
C         84.64931       45.14675        7.45954
O         86.89283       44.45264        7.24197
H         83.87767       42.11634        5.82990
H         85.17322       42.69990        8.52839
H         85.49908       44.05970        5.77227
H         87.23059       45.06271        6.53477
H         83.60605       44.92751        7.20742
H         84.74455       45.18251        8.56665
H         84.90617       46.14531        7.04785
N         87.56091       41.77973        7.54868
C         88.68311       40.93125        7.17571
C         89.27504       40.29909        8.43107
O         89.26759       39.07954        8.53249
C         89.69079       41.77855        6.34703
C         90.84657       40.95136        5.78842
O         90.21561       42.84660        7.09503
H         87.75725       42.54596        8.20497
H         88.33725       40.11496        6.50301
H         89.14632       42.17688        5.45552
H         89.66974       43.65132        6.89355
H         91.45152       40.51215        6.60559
H         90.45836       40.13694        5.14146
H         91.50302       41.60405        5.17236
N         89.78738       41.06961        9.43504
C         90.32333       40.54739       10.68785
C         89.59768       41.18880       11.85367
O         89.49891       42.40978       11.88520
C         91.82097       40.87362       10.82878
C         92.68256       40.20646        9.74541
C         94.18886       40.45201        9.94984
C         94.74974       39.75625       11.20588
N         96.18666       39.99087       11.33920
H         89.79717       42.09306        9.32089
H         90.22521       39.44023       10.74817
H         92.13101       40.49545       11.82412
H         91.98447       41.97410       10.80342
H         92.39179       40.63211        8.76298
H         92.49482       39.11061        9.72054
H         94.38400       41.54555        9.99673
H         94.72400       40.04237        9.06561
H         94.56355       38.66143       11.13046
H         94.25211       40.13125       12.12349
H         96.37137       41.01389       11.45475
H         96.53704       39.48774       12.18663
H         96.69328       39.63102       10.49833
N         89.13820       40.44118       12.89713
C         88.51760       41.05966       14.06304
C         87.17168       41.67857       13.69539
O         87.05066       42.88496       13.85319
C         88.43445       40.10209       15.27327
C         89.83111       39.69756       15.77649
C         89.73055       38.85970       17.01889
O         89.15848       39.36469       18.12929
O         90.17980       37.72506       17.03488
H         89.29579       39.42154       12.88791
H         89.18151       41.88548       14.41236
H         87.87063       39.18311       15.04220
H         87.91497       40.64117       16.09670
H         90.42417       40.60532       16.02118
H         90.36871       39.13135       14.98544
N         86.11210       40.98784       13.17768
C         86.08566       39.56673       12.90642
H         85.11472       39.29706       12.43954
H         86.89403       39.28506       12.20238
H         86.15085       38.98467       13.84198
H         85.26050       41.52030       12.93966
Ca        73.04539       42.10670        9.47188
O         75.42502       40.93818        7.78981
H         75.70487       40.91824        6.84043
H         76.12338       41.47328        8.24376
O         73.00980       43.43696       12.32281
H         73.58897       44.23440       12.22834
H         72.10865       43.80438       12.50576
O         75.21802       40.65637       11.14119
H         76.10739       40.77445       10.72262
H         75.20191       41.31625       11.87917

Ca 1.0



