%chk=apoCaM-CA-Ng.loop2.water4.frame1169.chk
%nprocshared=20
%mem=10GB
%nosave
#b3lyp/svp scf=(tight,noincore,xqc) Test 
#IOP(5/87=12) Density=Current Pop=(MK,readradii) iop(6/33=2) iop(6/42=6)

apoCaM-CA-Ng.loop2.water4.frame1169 

   -2  1 
C         89.04635       44.68354      126.70080
C         88.26757       43.70076      125.87622
O         88.67031       43.45248      124.74842
H         89.91837       45.05483      126.12029
H         88.40001       45.54928      126.95002
H         89.44101       44.22593      127.62325
N         87.11837       43.10647      126.30576
C         86.51084       43.24314      127.63689
C         85.02051       42.87388      127.56421
O         84.49091       42.78724      126.46356
C         87.30964       42.41818      128.68757
C         87.36015       40.96666      128.33546
O         86.90220       40.02122      129.17196
O         87.82929       40.62176      127.26295
H         86.65294       42.49085      125.62027
H         86.52763       44.30785      127.95374
H         86.87948       42.54901      129.70135
H         88.34994       42.77788      128.75199
N         84.26025       42.68187      128.68618
C         82.81248       42.46612      128.65442
C         82.36148       41.25798      127.82644
O         81.16012       41.12941      127.63077
C         82.12409       43.74958      128.15561
H         84.70152       42.73007      129.61424
H         82.44743       42.31357      129.69454
H         81.01922       43.64802      128.21795
H         82.41929       44.60628      128.79890
H         82.39188       43.98439      127.10557
N         83.23090       40.32952      127.31908
C         82.80250       39.24698      126.42925
C         82.96447       37.88457      127.07397
O         83.52557       37.77279      128.15488
C         83.60932       39.31010      125.09963
C         85.08450       39.08748      125.33103
O         85.50169       37.94036      125.90032
O         85.88602       39.97951      125.10817
H         84.23043       40.38536      127.55928
H         81.72439       39.35712      126.18412
H         83.44949       40.30601      124.63203
H         83.24903       38.53860      124.38711
N         82.49323       36.78660      126.42201
C         82.74211       35.42337      126.84359
C         84.15664       35.03802      126.47046
O         85.09751       35.57153      127.03775
H         81.95277       36.91885      125.55343
H         82.04465       34.76788      126.27935
H         82.52069       35.27833      127.92325
N         84.36911       34.11922      125.48599
C         85.68205       33.73658      124.98183
C         85.71357       33.91516      123.46614
O         84.79473       33.45730      122.79980
C         85.94187       32.26045      125.34759
C         87.33098       31.76611      124.99286
N         87.67857       30.48888      125.26685
O         88.15092       32.50829      124.47250
H         83.54988       33.65892      125.06002
H         86.48783       34.33575      125.46307
H         85.18557       31.61641      124.84861
H         85.82554       32.14672      126.44744
H         87.00731       29.84533      125.70978
H         88.62217       30.14334      125.03585
N         86.78207       34.50032      122.84846
C         86.94669       34.59084      121.39728
C         86.94259       33.22492      120.71375
O         86.65676       32.23297      121.36904
H         87.55026       34.86455      123.43243
H         87.92540       35.07808      121.20114
H         86.14566       35.22376      120.96341
N         87.27871       33.04303      119.40163
C         87.82828       34.06946      118.51657
C         86.85960       35.19611      118.19942
O         85.65438       34.99445      118.25826
C         88.35120       33.42384      117.19973
C         87.23382       32.81306      116.33278
O         89.04911       34.38151      116.44635
H         87.24528       32.07142      119.05524
H         88.71111       34.49774      119.04006
H         89.05594       32.61043      117.49635
H         89.66522       33.88381      115.84686
H         86.66852       32.03157      116.87991
H         86.52173       33.59453      115.99772
H         87.67595       32.33978      115.43057
N         87.35042       36.41334      117.81592
C         86.52826       37.54518      117.39755
C         87.00885       37.99667      116.01470
O         88.16540       38.39250      115.93337
C         86.66696       38.71627      118.41392
C         86.27469       38.30885      119.85904
C         85.86717       39.95105      117.95613
C         84.80929       37.89998      120.05047
H         88.37417       36.54703      117.82001
H         85.47292       37.24684      117.39201
H         87.73884       39.01579      118.45537
H         86.48068       39.16611      120.53606
H         86.92321       37.47018      120.18912
H         85.98297       40.77883      118.68698
H         86.23461       40.32163      116.97616
H         84.79260       39.70475      117.84393
H         84.54883       37.01545      119.43859
H         84.64161       37.63483      121.11514
H         84.12383       38.73344      119.79579
N         86.26587       37.97317      114.86576
C         84.90089       37.47570      114.71080
C         84.02747       38.44996      113.91932
O         84.49258       39.49428      113.49176
C         84.95536       36.08212      114.03388
C         85.50723       36.08602      112.62999
O         86.78270       36.44618      112.39192
O         84.80720       35.71876      111.70013
H         86.74824       38.27174      114.00464
H         84.40299       37.33017      115.67936
H         83.93649       35.64302      114.01178
H         85.57591       35.40371      114.65623
N         82.73752       38.09856      113.64323
C         81.84485       38.82257      112.74574
C         80.46223       38.94776      113.38209
O         79.95620       37.92969      113.82680
C         81.73351       37.97268      111.46043
C         80.78148       38.55105      110.44386
C         79.42742       38.17384      110.45878
C         81.23260       39.45641      109.46984
C         78.53822       38.69729      109.51826
C         80.33871       39.97639      108.52728
C         78.99303       39.59756      108.55228
H         82.39658       37.19656      114.00096
H         82.26204       39.80390      112.44687
H         81.40988       36.93704      111.70763
H         82.74247       37.87046      111.00179
H         79.06052       37.47485      111.20003
H         82.27253       39.75685      109.43930
H         77.49707       38.40241      109.53865
H         80.68865       40.67214      107.77601
H         78.30242       39.99956      107.82262
N         79.72715       40.10936      113.37652
C         80.10685       41.37465      112.76937
C         81.23167       42.08781      113.48407
O         82.20307       42.45647      112.84378
C         78.82431       42.22322      112.84094
C         77.74923       41.16080      112.76843
C         78.31895       40.12301      113.72773
H         80.34754       41.19379      111.69728
H         78.71515       42.69339      113.84482
H         78.76382       43.02981      112.07959
H         76.72760       41.51306      113.02486
H         77.74217       40.73614      111.73828
H         78.21643       40.47406      114.77871
H         77.80557       39.14638      113.59593
N         81.14079       42.34259      114.82250
C         82.12430       43.14288      115.53821
C         81.98962       44.58825      115.07079
O         80.91064       45.14313      115.22735
C         81.90784       43.10131      117.07407
C         82.15832       41.72597      117.72206
C         81.11404       40.70033      117.38818
O         79.82821       40.91255      117.73075
O         81.42509       39.66495      116.82160
H         80.32292       41.98480      115.33183
H         83.13675       42.72971      115.34892
H         80.89722       43.47517      117.35075
H         82.65623       43.79271      117.52240
H         82.15030       41.84963      118.82630
H         83.16621       41.36748      117.42555
N         83.00206       45.28993      114.48856
C         84.32439       44.75773      114.25347
H         84.79443       44.46816      115.21648
H         84.27179       43.88175      113.57555
H         84.95748       45.53240      113.77079
H         82.82061       46.26428      114.19982
Ca        86.40438       38.23212      127.93575
O         87.34762       35.37722      129.80080
H         87.72775       35.22973      130.70320
H         86.75576       34.59818      129.64924
O         88.80262       38.19630      130.47171
H         88.78152       38.40271      131.43976
H         89.41638       37.42355      130.39463
O         89.08381       36.82529      127.35556
H         89.93308       37.06053      127.80686
H         88.96970       35.85720      127.52902
O         84.90869       37.00560      130.89103
H         85.07236       36.76302      131.83695
H         84.12479       36.46091      130.62761

Ca 1.0



