%chk=apoCaM-CA-Ng.loop3.water5.frame436.chk
%nprocshared=20
%mem=10GB
%nosave
#b3lyp/svp scf=(tight,noincore,xqc) Test 
#IOP(5/87=12) Density=Current Pop=(MK,readradii) iop(6/33=2) iop(6/42=6)

apoCaM-CA-Ng.loop3.water5.frame436 

   0  1 
C        103.35054       66.17413       89.71313
C        102.46232       64.96774       89.62315
O        101.37955       64.99350       90.18738
H        104.30780       66.01475       89.17263
H        102.83717       67.05666       89.28013
H        103.58546       66.37480       90.78031
N        102.86997       63.86108       88.93808
C        102.13252       62.60358       88.86765
C        102.05460       61.98827       90.26035
O        100.97728       61.67772       90.75059
C        100.76484       62.80120       88.16432
C        100.04612       61.51945       87.82605
O        100.52744       60.42875       88.09109
O         98.85678       61.58053       87.19775
H        103.78372       63.89004       88.45974
H        102.73292       61.90967       88.23671
H        100.93820       63.33681       87.20605
H        100.09441       63.42385       88.79217
N        103.21195       61.81379       90.96285
C        103.29492       61.24959       92.31312
C        102.59183       62.09850       93.37704
O        102.54725       61.66755       94.52154
C        104.78199       61.08652       92.71305
C        105.51137       60.05774       91.82475
C        106.99913       59.90081       92.17767
C        107.83839       61.13502       91.80137
N        109.25140       60.91786       92.11094
H        104.08718       62.09614       90.49566
H        102.81440       60.24628       92.30916
H        104.85497       60.72741       93.76322
H        105.26666       62.08419       92.65444
H        105.43289       60.31204       90.74698
H        105.01376       59.07531       91.97664
H        107.39335       59.03655       91.59989
H        107.10634       59.67170       93.26017
H        107.48745       62.03357       92.35034
H        107.73167       61.32874       90.71017
H        109.80097       61.75586       91.81210
H        109.37436       60.78171       93.14056
H        109.61048       60.07965       91.59847
N        102.02650       63.30427       93.09101
C        101.34193       64.13785       94.07272
C        100.14504       63.41085       94.66953
O         99.42788       62.74539       93.93576
C        100.87112       65.43789       93.39325
C        100.35959       66.42886       94.39216
O         99.08865       66.84847       94.32807
O        101.10402       66.88590       95.24312
H        102.09836       63.66787       92.13677
H        102.06623       64.41384       94.87115
H        100.08269       65.20187       92.64258
H        101.72082       65.91890       92.86173
N         99.85121       63.52682       95.99779
C         98.73083       62.84789       96.63874
C         97.34371       63.24499       96.14114
O         96.39083       62.62561       96.59380
H        100.46801       64.09754       96.59464
H         98.76697       63.03656       97.73332
H         98.85917       61.75415       96.48094
N         97.13590       64.20829       95.19485
C         95.83582       64.42419       94.56032
C         96.00422       64.99889       93.15372
O         95.29890       65.92116       92.76853
C         94.85229       65.22169       95.45651
C         95.39775       66.54955       96.01660
N         94.32278       67.35155       96.59279
O         96.08218       67.30776       95.06976
H         97.94379       64.70864       94.81013
H         95.38807       63.42563       94.35798
H         94.57181       64.60572       96.33728
H         93.92101       65.40498       94.87723
H         93.85721       66.81317       97.35692
H         94.73993       68.21158       97.01704
N         96.91548       64.42802       92.31269
C         97.14226       64.77767       90.91595
C         97.68671       66.17063       90.62509
O         98.04697       66.40018       89.48079
H         97.46585       63.63587       92.67265
H         96.21076       64.61836       90.33335
H         97.90403       64.06396       90.52838
N         97.76235       67.15552       91.56344
C         98.29331       68.48754       91.29031
C         97.72112       69.47617       92.29652
O         97.82416       69.26429       93.49475
C         99.83232       68.45580       91.33144
C        100.44115       69.83831       91.29964
C        100.27588       70.68969       90.19475
C        101.17118       70.29145       92.41160
C        100.83162       71.97502       90.20907
C        101.71963       71.57342       92.42571
C        101.55187       72.42133       91.32381
O        102.07371       73.66437       91.32857
H         97.41506       66.97474       92.50754
H         97.97324       68.82423       90.27961
H        100.22793       67.84020       90.49493
H        100.13464       67.96369       92.27016
H         99.71544       70.36290       89.32807
H        101.30786       69.65422       93.27628
H        100.69764       72.62787       89.35599
H        102.27103       71.90567       93.29626
H        102.56817       74.00977       92.08604
N         97.10965       70.60606       91.84796
C         96.44053       71.55719       92.72434
C         95.14873       70.93161       93.21788
O         94.86243       71.03531       94.40188
C         96.19629       72.90892       91.98518
C         97.52684       73.54404       91.47651
C         95.44239       73.92334       92.87173
C         98.53886       73.91869       92.57062
H         97.09648       70.78582       90.83320
H         97.08387       71.79544       93.59834
H         95.56071       72.71086       91.09329
H         97.28579       74.46579       90.90439
H         98.03123       72.85229       90.77136
H         96.00076       74.14709       93.80285
H         95.27725       74.86896       92.31193
H         94.45070       73.54201       93.17439
H         98.12024       74.66805       93.27212
H         98.87544       73.02804       93.13922
H         99.43529       74.37231       92.10036
N         94.33698       70.22325       92.37466
C         93.09717       69.60145       92.83223
C         92.02227       70.63700       93.14245
O         91.03515       70.27699       93.76635
C         92.58895       68.56514       91.81994
O         92.30812       69.17731       90.59025
H         94.63712       70.08271       91.39748
H         93.32881       69.04184       93.76774
H         91.67272       68.06793       92.20752
H         93.38526       67.79316       91.69728
H         92.38761       68.46831       89.89982
N         92.16519       71.94638       92.76576
C         91.26714       73.04546       93.11897
C         91.30357       73.40588       94.60861
O         90.66816       74.38242       94.98050
C         89.84203       72.79313       92.60751
H         92.96820       72.20351       92.17771
H         91.64001       73.95049       92.58733
H         89.21071       73.69089       92.77755
H         89.86629       72.59167       91.51465
H         89.36230       71.93564       93.11918
N         92.04068       72.69636       95.51335
C         92.17790       73.04410       96.92371
C         93.00045       74.30647       97.08736
O         94.03991       74.41347       96.45129
C         92.89663       71.90881       97.66327
H         92.55064       71.86469       95.20214
H         91.17618       73.14305       97.39785
H         93.90757       71.73788       97.23735
H         92.99494       72.15554       98.74213
H         92.30936       70.96994       97.57128
N         92.62516       75.27719       97.97429
C         93.39517       76.49489       98.24020
C         93.41691       77.45116       97.05281
O         94.10023       78.46254       97.14194
C         94.83234       76.18023       98.73984
C         94.83538       75.36022      100.03811
C         96.23949       75.15110      100.53381
O         97.01083       76.21052      100.84787
O         96.68428       74.02226      100.66658
H         91.76502       75.13340       98.52468
H         92.89588       77.05544       99.06201
H         95.34876       77.14348       98.94757
H         95.42608       75.65279       97.96532
H         94.34925       74.37601       99.86273
H         94.26626       75.90210      100.82386
N         92.65527       77.24337       95.93903
C         92.62988       78.15046       94.80981
H         93.33180       79.00201       94.93016
H         92.90608       77.59570       93.88953
H         91.60358       78.55742       94.69131
H         92.03231       76.42857       95.88058
Ca        97.78102       68.14463       96.35081
O         99.15055       69.86064       98.73772
H         98.84025       70.79796       98.81193
H         99.12434       69.51646       99.66556
O         99.77207       70.50080       95.63457
H         99.38959       71.39275       95.82995
H        100.73893       70.66892       95.50575
O         97.00944       66.98269       99.05858
H         97.56835       67.02972       99.87443
H         97.00513       66.02319       98.81364
O        100.19598       66.78601       98.01638
H        101.02714       66.28390       97.82344
H        100.18813       66.87923       99.00143
O         96.79232       70.88699       96.93530
H         96.24579       71.20118       97.69759
H         96.17757       70.31814       96.40944

Ca 1.0



