%chk=apoCaM-CA-Ng.loop3.water6.frame356.chk
%nprocshared=20
%mem=10GB
%nosave
#b3lyp/svp scf=(tight,noincore,xqc) Test 
#IOP(5/87=12) Density=Current Pop=(MK,readradii) iop(6/33=2) iop(6/42=6)

apoCaM-CA-Ng.loop3.water6.frame356 

   0  1 
C         94.11881       76.57201       49.03086
C         95.54692       76.11176       49.04336
O         95.95093       75.44036       48.10769
H         93.45028       75.68529       48.99449
H         93.87208       77.15781       49.94127
H         93.93345       77.20275       48.13700
N         96.36978       76.42383       50.08603
C         97.74642       75.95587       50.22040
C         97.74595       74.43663       50.35605
O         98.37154       73.73291       49.57478
C         98.63179       76.51567       49.07979
C        100.10501       76.25459       49.26439
O        100.89466       76.67173       48.43266
O        100.57116       75.58689       50.33847
H         95.99420       77.00289       50.85284
H         98.14742       76.37020       51.17314
H         98.49582       77.61891       49.04452
H         98.31826       76.09866       48.10204
N         97.01362       73.87901       51.36273
C         96.89867       72.44193       51.63106
C         96.30186       71.61699       50.48985
O         96.30370       70.39856       50.60347
C         96.09548       72.19611       52.93646
C         94.67031       72.79978       52.94251
C         93.95981       72.50856       54.27324
C         92.67471       73.33429       54.47226
N         91.66924       73.09009       53.43890
H         96.54601       74.54077       51.99559
H         97.92799       72.05218       51.79240
H         96.66359       72.65290       53.77605
H         96.03742       71.10199       53.12801
H         94.07184       72.39813       52.09720
H         94.72738       73.90009       52.83633
H         94.63671       72.78508       55.11121
H         93.74318       71.42075       54.34659
H         92.93016       74.41789       54.48777
H         92.24698       73.07509       55.46622
H         92.01392       73.41681       52.50810
H         91.42786       72.07407       53.40077
H         90.80870       73.63597       53.67517
N         95.79008       72.18480       49.36413
C         95.28238       71.41449       48.22627
C         96.38778       70.53660       47.60839
O         97.54701       70.66367       47.97828
C         94.65758       72.43101       47.23754
C         94.22358       71.92376       45.90653
O         92.96248       72.06120       45.46690
O         95.07446       71.57609       45.11213
H         95.74728       73.20954       49.31527
H         94.47837       70.73598       48.58725
H         95.41335       73.21361       47.01048
H         93.79738       72.92612       47.73918
N         96.07078       69.57130       46.69415
C         97.02717       68.64076       46.10400
C         98.09029       69.32462       45.27124
O         99.26943       69.12937       45.52701
H         95.08193       69.44806       46.42909
H         96.47333       67.94749       45.43323
H         97.49669       68.03100       46.90579
N         97.73128       70.15285       44.25486
C         98.66181       70.86905       43.39161
C         98.76218       72.33047       43.81729
O         99.32254       73.12654       43.07584
C         98.17405       70.76520       41.92568
C         98.11113       69.33949       41.42662
N         98.85258       68.94522       40.36493
O         97.37150       68.53520       41.97333
H         96.73311       70.32673       44.10388
H         99.68829       70.44470       43.45091
H         98.86244       71.34675       41.27458
H         97.16344       71.22076       41.83442
H         99.47796       69.60418       39.87918
H         98.79866       67.97412       40.02306
N         98.29835       72.74883       45.03216
C         98.36972       74.12448       45.48744
C         97.27966       74.99857       44.90410
O         97.20572       76.15258       45.30127
H         97.91994       72.06635       45.70119
H         99.38465       74.54250       45.31191
H         98.19462       74.12677       46.58537
N         96.37145       74.52475       43.99967
C         95.21523       75.29888       43.55623
C         94.45659       74.59831       42.39440
O         94.77175       73.26611       42.09958
C         94.25279       75.49565       44.75330
C         92.93222       76.13236       44.39185
C         92.87254       77.42444       43.84735
C         91.73706       75.42414       44.61036
C         91.63589       77.99449       43.52270
C         90.50540       75.99437       44.28704
C         90.45000       77.28292       43.74071
O         89.26610       77.84529       43.42501
H         96.48206       73.56826       43.64588
H         95.56108       76.29044       43.19277
H         94.73419       76.10838       45.54281
H         94.05703       74.49928       45.19230
H         93.77996       77.98852       43.67483
H         91.75459       74.42845       45.03366
H         91.59870       78.99105       43.10231
H         89.59612       75.43302       44.46352
H         88.42583       77.38486       43.56450
N         94.20669       75.43827       41.21582
C         93.88220       74.69934       39.98445
C         95.13159       74.11914       39.30249
O         94.96764       73.19575       38.51890
C         93.03236       75.62482       39.06396
C         91.75280       76.06089       39.83743
C         92.65904       74.94392       37.73240
C         90.91375       77.11786       39.12255
H         94.86610       76.23613       41.07790
H         93.23389       73.83599       40.25861
H         93.63962       76.52828       38.83155
H         92.03777       76.51272       40.81134
H         91.12035       75.17068       40.05024
H         93.56318       74.68394       37.15050
H         92.06538       74.02321       37.91419
H         92.08112       75.62792       37.08121
H         90.50536       76.74142       38.16481
H         90.05376       77.39409       39.76933
H         91.52424       78.02727       38.93962
N         96.40135       74.58455       39.53318
C         97.58263       74.02673       38.86668
C         97.55407       74.18149       37.34434
O         98.42663       73.62149       36.69313
C         98.86818       74.66476       39.42539
O         98.87836       76.04940       39.18158
H         96.55369       75.34652       40.20438
H         97.61626       72.93951       39.10171
H         99.76135       74.16695       38.97680
H         98.92935       74.49714       40.52176
H         99.65003       76.24455       38.58856
N         96.58168       74.89616       36.70461
C         96.43836       75.01228       35.26077
C         96.27309       73.64658       34.60529
O         96.93431       73.36625       33.61658
C         97.58763       75.83395       34.65589
H         95.86509       75.38421       37.25703
H         95.49914       75.57758       35.06858
H         97.41862       75.98716       33.56861
H         97.63402       76.83078       35.14361
H         98.56427       75.32541       34.79360
N         95.40563       72.73366       35.13493
C         95.16050       71.42281       34.53924
C         93.67186       71.14593       34.44830
O         92.89796       71.78779       35.14404
C         95.82515       70.33902       35.38843
H         94.92601       72.96549       36.01411
H         95.59788       71.37878       33.51859
H         96.91916       70.52477       35.44314
H         95.41235       70.34230       36.42057
H         95.66233       69.33686       34.93714
N         93.19844       70.18859       33.59179
C         91.78707       69.81448       33.49924
C         90.87736       70.99423       33.16057
O         89.66970       70.85554       33.30373
C         91.34179       69.09043       34.79731
C         92.13972       67.79756       35.05851
C         91.95177       66.78512       33.95966
O         92.91151       66.38706       33.31886
O         90.72201       66.31268       33.67758
H         93.86585       69.69450       32.98186
H         91.65367       69.08070       32.67512
H         90.26668       68.81425       34.72365
H         91.45245       69.76446       35.67235
H         91.78935       67.34109       36.00855
H         93.21867       68.03960       35.17330
N         91.37112       72.16529       32.65958
C         90.54314       73.31183       32.34466
H         89.47582       73.15189       32.60471
H         90.90995       74.19130       32.91447
H         90.61423       73.53155       31.25918
H         92.37754       72.26235       32.46636
Ca        93.14715       72.16492       43.24060
O         91.59029       69.10750       44.74193
H         92.30022       68.95775       45.41598
H         91.51619       68.24410       44.26262
O         90.07682       72.46292       43.83825
H         89.95722       72.33716       42.86380
H         90.21391       71.54832       44.19136
O         94.71228       70.47029       40.75472
H         94.35531       71.19057       40.17811
H         95.00462       69.76863       40.12071
O         94.19004       68.50889       43.36976
H         94.38845       67.55174       43.21497
H         95.07064       68.95418       43.32755
O         92.00294       68.78207       41.24692
H         92.42331       68.74588       40.35118
H         92.10224       67.86421       41.60436
O         91.51214       71.69580       40.47155
H         90.81446       72.39524       40.41004
H         91.89201       71.64328       39.55872

Ca 1.0



