%chk=apoCaM-CA-Ng.loop2.water3.frame373.chk
%nprocshared=20
%mem=10GB
%nosave
#b3lyp/svp scf=(tight,noincore,xqc) Test 
#IOP(5/87=12) Density=Current Pop=(MK,readradii) iop(6/33=2) iop(6/42=6)

apoCaM-CA-Ng.loop2.water3.frame373 

   -2  1 
C         32.20366       85.00582       18.94603
C         31.48672       83.79473       19.47378
O         30.30892       83.89405       19.78520
H         33.25739       84.77349       18.68125
H         31.69073       85.36629       18.02867
H         32.19789       85.81203       19.70727
N         32.13034       82.59843       19.56729
C         31.46146       81.36412       19.97440
C         30.95827       81.37324       21.41921
O         31.29458       82.25641       22.19521
C         32.39482       80.15017       19.73044
C         33.70459       80.24661       20.47410
O         34.75654       80.27670       19.85438
O         33.72826       80.29374       21.81952
H         33.11507       82.55623       19.26149
H         30.57403       81.23610       19.31543
H         32.60900       80.09197       18.64007
H         31.88870       79.20468       20.01716
N         30.13620       80.36073       21.82560
C         29.64781       80.14599       23.18703
C         28.80460       81.28561       23.72749
O         27.89440       81.75469       23.05856
C         28.80805       78.86787       23.24690
H         29.86742       79.66411       21.11362
H         30.52354       79.98083       23.85349
H         28.47950       78.67963       24.29241
H         27.91118       78.95847       22.59747
H         29.41492       78.00076       22.91153
N         29.03931       81.72902       24.99244
C         28.31733       82.81869       25.63729
C         26.85440       82.52069       25.86585
O         26.51697       81.45286       26.35821
C         28.94894       83.16578       27.00069
C         30.36023       83.63249       26.83822
O         30.94847       84.13637       27.78123
O         30.97193       83.54569       25.64427
H         29.79868       81.27630       25.52486
H         28.40955       83.73498       25.01199
H         28.91292       82.31229       27.71193
H         28.37364       84.01405       27.43608
N         25.95267       83.52529       25.68483
C         24.55904       83.44277       26.07817
C         23.64638       84.03315       25.03416
O         22.71032       83.37160       24.60956
H         26.30813       84.44115       25.37407
H         24.43013       84.07118       26.98686
H         24.25874       82.40653       26.34640
N         23.82484       85.32770       24.64407
C         22.87930       86.08311       23.82960
C         23.52845       86.57219       22.54065
O         24.68366       86.25211       22.29293
C         22.38285       87.25300       24.70469
C         21.74709       86.71746       25.96889
N         22.32194       86.92549       27.17752
O         20.71892       86.06107       25.89442
H         24.63006       85.85127       25.02078
H         22.00616       85.45653       23.54237
H         21.64310       87.88651       24.17361
H         23.25619       87.89285       24.96279
H         23.20414       87.45106       27.26263
H         21.89745       86.53517       28.03224
N         22.82539       87.34703       21.65955
C         23.35750       87.80876       20.38113
C         23.48051       89.31447       20.32969
O         23.17780       89.97674       21.31401
H         21.85958       87.62057       21.89486
H         22.68363       87.46448       19.56846
H         24.36727       87.38714       20.19011
N         23.98029       89.91973       19.20822
C         24.24641       91.35734       19.13021
C         25.74001       91.64358       19.14047
O         26.10152       92.79898       19.31027
C         23.56551       92.01983       17.90505
C         24.20282       91.63922       16.55584
O         22.18585       91.75431       17.90167
H         24.23735       89.32302       18.40706
H         23.83837       91.84652       20.04197
H         23.69195       93.12131       17.99914
H         22.06119       90.80936       17.62319
H         24.15459       90.54618       16.37466
H         23.68060       92.16532       15.72986
H         25.26277       91.96395       16.52993
N         26.66322       90.64511       18.99526
C         28.09734       90.84642       19.14697
C         28.52567       90.05587       20.37511
O         27.76811       89.21679       20.84610
C         28.84825       90.39819       17.84494
C         28.29568       91.07780       16.56342
C         30.37516       90.58975       17.92043
C         28.42071       92.60338       16.52416
H         26.35677       89.67848       18.82334
H         28.31042       91.91706       19.35172
H         28.66898       89.30808       17.70699
H         27.22870       90.80492       16.44245
H         28.82937       90.66480       15.67873
H         30.85005       90.27454       16.96687
H         30.63933       91.64958       18.11796
H         30.82047       89.95072       18.70634
H         29.48162       92.92122       16.57580
H         27.99830       92.97800       15.56766
H         27.85522       93.07167       17.35272
N         29.71813       90.30130       20.97617
C         30.19016       89.56001       22.13576
C         30.41184       90.50651       23.32026
O         31.02030       90.10472       24.30172
C         31.45593       88.80119       21.68967
C         31.90571       87.71902       22.63540
O         31.23833       87.45709       23.77593
O         32.86789       87.03123       22.33657
H         30.32823       91.04233       20.59959
H         29.45046       88.78946       22.44624
H         32.27692       89.52197       21.49324
H         31.22176       88.27982       20.73428
N         29.88672       91.76958       23.32323
C         30.07198       92.71515       24.41820
C         31.52356       93.17840       24.45555
O         31.98509       93.67698       23.43667
C         29.17669       93.96090       24.19714
C         29.30688       94.95080       25.33270
C         29.94179       96.18744       25.12525
C         28.80630       94.64288       26.61009
C         30.08541       97.09305       26.18041
C         28.94361       95.55632       27.66060
C         29.58630       96.77849       27.44677
H         29.30038       92.07186       22.53127
H         29.74560       92.23880       25.36677
H         28.10768       93.66961       24.09923
H         29.47354       94.43852       23.23674
H         30.34055       96.44438       24.15198
H         28.30845       93.69860       26.79177
H         30.58651       98.03820       26.01633
H         28.55472       95.31580       28.64172
H         29.69793       97.48187       28.26189
N         32.29948       93.12385       25.58138
C         33.62223       93.72613       25.65088
C         34.69683       92.89327       24.97621
O         35.80498       93.38955       24.82978
C         33.85933       93.86772       27.15516
C         33.16143       92.63281       27.69482
C         31.87679       92.61149       26.86787
H         33.61776       94.73893       25.18861
H         34.91931       94.00478       27.45813
H         33.27479       94.74514       27.51594
H         33.77869       91.75088       27.40842
H         32.99981       92.61044       28.79291
H         31.48415       91.57314       26.81983
H         31.11221       93.29894       27.28629
N         34.46450       91.61890       24.56291
C         35.46682       90.82663       23.86332
C         35.68920       91.39302       22.48244
O         36.82987       91.65521       22.12818
C         35.02167       89.36479       23.76781
C         35.03897       88.71891       25.15815
C         34.56814       87.31518       25.07688
O         35.11677       86.50105       24.35061
O         33.50931       86.95730       25.80463
H         33.54794       91.18910       24.75650
H         36.42906       90.82614       24.42509
H         35.73105       88.80037       23.12222
H         34.01115       89.30912       23.31250
H         34.37043       89.27335       25.85368
H         36.06785       88.72889       25.57385
N         34.63158       91.62542       21.65545
C         34.76845       92.16328       20.31866
H         35.83060       92.29356       20.02255
H         34.28615       91.47266       19.59633
H         34.26429       93.15071       20.26791
H         33.67629       91.43732       21.99493
Ca        32.48028       85.08772       25.29249
O         33.64226       82.31867       25.08669
H         34.56486       82.27846       24.73057
H         33.75604       82.39097       26.06796
O         29.73073       85.10611       22.60163
H         28.85925       85.55418       22.46094
H         29.49424       84.18145       22.86194
O         34.19894       84.19958       21.86006
H         34.66444       84.51455       21.04481
H         34.09794       83.22395       21.72635

Ca 1.0



