%chk=apoCaM-CA-Ng.loop1.water3.frame121.chk
%nprocshared=20
%mem=10GB
%nosave
#b3lyp/svp scf=(tight,noincore,xqc) Test 
#IOP(5/87=12) Density=Current Pop=(MK,readradii) iop(6/33=2) iop(6/42=6)

apoCaM-CA-Ng.loop1.water3.frame121 

   0  1 
C         57.05981       48.63866        7.15691
C         56.55477       47.69518        8.21111
O         57.20639       47.54443        9.23466
H         58.06018       48.30395        6.81095
H         56.38133       48.66702        6.27730
H         57.13857       49.66347        7.57404
N         55.38886       47.01595        8.02295
C         54.83615       46.07604        8.99843
C         55.70440       44.83280        9.23018
O         55.36200       44.05256       10.10492
C         53.38690       45.68607        8.61888
C         53.24987       44.93201        7.31947
O         52.67900       43.71792        7.31184
O         53.59578       45.42925        6.26080
H         54.85721       47.22236        7.16645
H         54.76627       46.61275        9.96713
H         52.77408       46.61121        8.55264
H         52.96249       45.06686        9.43673
N         56.84163       44.59387        8.51475
C         57.74030       43.45897        8.72005
C         59.11205       43.98881        9.11953
O         59.55110       44.93535        8.47971
C         57.89761       42.68965        7.39348
C         56.61367       42.05720        6.83701
C         56.01254       40.98716        7.76518
C         54.94610       40.12625        7.06361
N         53.79050       40.90091        6.61645
H         57.11243       45.25229        7.77277
H         57.36043       42.75729        9.48065
H         58.64091       41.87822        7.52867
H         58.30191       43.37946        6.61996
H         56.90209       41.56805        5.88114
H         55.86485       42.84664        6.61425
H         55.58690       41.46138        8.67607
H         56.82016       40.29086        8.07746
H         54.60072       39.34521        7.77659
H         55.40587       39.61126        6.19111
H         53.10637       40.25547        6.15987
H         53.33131       41.34564        7.44091
H         54.07170       41.62239        5.91480
N         59.92390       43.44660       10.08002
C         59.71604       42.25923       10.90500
C         59.43611       40.99737       10.08584
O         58.42189       40.36064       10.32136
C         58.67877       42.50621       12.02722
C         59.03993       43.68652       12.88437
O         58.17871       44.71364       13.00845
O         60.10290       43.71464       13.48411
H         60.84644       43.89648       10.19982
H         60.66875       42.06682       11.42714
H         58.64287       41.60921       12.68292
H         57.66637       42.66644       11.61551
N         60.25810       40.53630        9.09816
C         61.47305       41.19914        8.65425
C         61.91905       40.63729        7.32278
O         61.08169       40.58891        6.43146
H         59.95479       39.68521        8.59627
H         62.24683       41.17478        9.44851
H         61.23792       42.25208        8.41897
N         63.19611       40.26581        7.02497
C         64.35027       40.35226        7.91829
C         64.35508       39.24000        8.96288
O         63.45375       38.41196        8.96718
C         65.66218       40.34784        7.08171
C         65.95866       39.06153        6.34678
O         65.21446       38.64829        5.47243
O         67.08816       38.38263        6.62202
H         63.35619       40.00154        6.04264
H         64.33122       41.34049        8.42661
H         66.51953       40.56509        7.75134
H         65.61936       41.17933        6.34433
N         65.38556       39.13233        9.85551
C         65.50196       38.02398       10.79030
C         64.50746       38.06623       11.93079
O         64.40395       37.07168       12.63467
H         66.16054       39.81007        9.82109
H         66.51605       38.02059       11.24714
H         65.39588       37.07468       10.22153
N         63.80172       39.19226       12.23620
C         62.87426       39.25276       13.36430
C         61.63841       38.41700       13.07289
O         61.17155       38.40782       11.94204
C         62.47233       40.70558       13.69161
C         63.67866       41.55276       14.11563
O         61.54223       40.70057       14.74604
H         63.96074       40.04541       11.68059
H         63.37891       38.86838       14.28026
H         62.02665       41.14561       12.78068
H         60.89322       41.43015       14.57285
H         64.14824       41.12524       15.02788
H         64.44250       41.60523       13.31315
H         63.34634       42.58770       14.34281
N         61.04577       37.70993       14.07683
C         59.88357       36.83956       13.89373
C         58.66001       37.31286       14.67889
O         57.64184       36.63615       14.61316
C         60.24882       35.37731       14.28486
C         60.65597       35.26172       15.78036
C         61.34557       34.84270       13.34620
C         60.80696       33.82063       16.26112
H         61.44789       37.79069       15.02171
H         59.56953       36.83081       12.82588
H         59.34082       34.75477       14.12046
H         59.86754       35.72439       16.41189
H         61.60989       35.79678       15.97071
H         62.28859       35.41502       13.47169
H         61.55100       33.77088       13.53553
H         61.01595       34.92973       12.28860
H         59.85282       33.27047       16.11935
H         61.62301       33.29649       15.72602
H         61.05649       33.82329       17.34333
N         58.66082       38.46519       15.40810
C         57.50137       38.95703       16.14712
C         56.98687       40.17984       15.42930
O         57.75840       41.10089       15.20201
C         57.87996       39.23572       17.61938
C         56.68196       39.74427       18.42746
O         58.91554       40.18203       17.70146
H         59.50056       39.06042       15.40374
H         56.68959       38.19585       16.15989
H         58.20000       38.27421       18.08799
H         59.77176       39.68051       17.73302
H         56.31783       40.71455       18.02627
H         55.85128       39.00750       18.39500
H         56.97984       39.89543       19.48640
N         55.70085       40.22306       14.97843
C         55.22202       41.26508       14.08263
C         54.06495       42.03929       14.69297
O         53.57541       41.67252       15.75302
C         54.79679       40.58834       12.74602
C         55.85718       39.61720       12.20847
O         54.50335       41.54240       11.76341
H         55.05876       39.44582       15.20188
H         56.03820       41.99123       13.87448
H         53.88089       39.98205       12.92335
H         55.34756       42.01833       11.55541
H         56.02571       38.77478       12.91152
H         55.52665       39.18979       11.23804
H         56.81128       40.15208       12.07455
N         53.57036       43.12946       14.04259
C         52.38426       43.86949       14.45619
C         52.70206       45.32464       14.76584
O         52.20822       45.82026       15.76912
C         51.27062       43.68821       13.40142
C         51.56790       44.26307       12.00261
C         50.47077       43.90523       10.97581
C         50.33668       42.39766       10.65317
N         51.54982       41.84395       10.05070
H         54.04009       43.42212       13.17701
H         51.95632       43.42762       15.38461
H         50.32789       44.14445       13.77692
H         51.10927       42.59384       13.32662
H         52.54275       43.91142       11.61808
H         51.62466       45.36974       12.08535
H         50.68646       44.43959       10.02607
H         49.49317       44.27516       11.35331
H         49.49897       42.27075        9.93325
H         50.07144       41.81431       11.55865
H         52.34897       41.90328       10.71341
H         51.39608       40.83619        9.81930
H         51.77912       42.35809        9.17334
N         53.55477       46.05717       13.98903
C         53.90595       47.44576       14.26884
C         53.60450       48.27411       13.04019
O         54.19125       48.02122       11.99697
C         55.40336       47.56031       14.62501
C         55.76406       46.75464       15.88210
C         57.23936       46.81750       16.15050
O         57.78346       47.88284       16.39487
O         57.96753       45.68590       16.10890
H         54.00501       45.61376       13.17594
H         53.32441       47.83919       15.13187
H         55.65793       48.63037       14.79943
H         56.01411       47.18794       13.77263
H         55.48585       45.69005       15.72899
H         55.20773       47.14079       16.76413
N         52.69020       49.27922       13.07914
C         52.37934       50.06562       11.90495
H         51.60356       50.82140       12.14739
H         53.29131       50.58888       11.54584
H         51.99372       49.40438       11.09890
H         52.19366       49.48833       13.95803
Ca        60.20443       45.67577       16.42468
O         58.79896       43.03804       17.12039
H         59.14428       43.07281       16.19264
H         57.81647       43.11825       17.02387
O         59.85947       47.38780       13.70608
H         59.37229       47.13982       12.88086
H         59.36640       48.17093       14.05773
O         62.05999       48.02060       16.24640
H         61.16504       48.29291       16.57177
H         62.64287       48.08244       17.04424

Ca 1.0



