%chk=apoCaM-CA-Ng.loop2.water3.frame163.chk
%nprocshared=20
%mem=10GB
%nosave
#b3lyp/svp scf=(tight,noincore,xqc) Test 
#IOP(5/87=12) Density=Current Pop=(MK,readradii) iop(6/33=2) iop(6/42=6)

apoCaM-CA-Ng.loop2.water3.frame163 

   -2  1 
C         82.94964       62.23706       52.58162
C         83.82795       61.20012       53.21786
O         83.41344       60.05669       53.30767
H         82.00465       62.32818       53.15733
H         83.44660       63.22955       52.55596
H         82.71258       61.93360       51.54022
N         85.05382       61.53191       53.70623
C         85.95878       60.57390       54.32955
C         86.09988       60.84945       55.82614
O         86.91859       60.20138       56.45600
C         87.30577       60.62053       53.57524
C         88.27608       59.56815       54.04091
O         87.98704       58.38439       53.96034
O         89.47336       59.92786       54.54124
H         85.36080       62.51588       53.65144
H         85.56271       59.53786       54.23678
H         87.76033       61.62865       53.68776
H         87.11860       60.44280       52.49329
N         85.29695       61.75222       56.47091
C         85.29756       62.01944       57.90898
C         84.83115       60.80060       58.75611
O         83.63617       60.32296       58.21341
C         86.62214       62.63578       58.36998
H         84.60127       62.28278       55.92772
H         84.52308       62.79868       58.09290
H         87.48218       61.95625       58.21363
H         86.81524       63.56524       57.79267
H         86.55921       62.89813       59.44718
N         85.79228       59.69571       58.82515
C         85.37030       58.62501       59.75651
C         85.55863       57.25834       59.11710
O         85.24665       56.26371       59.75796
C         86.14880       58.70039       61.08815
C         85.99136       60.03324       61.76406
O         87.07351       60.79978       61.99749
O         84.88911       60.42639       62.10837
H         86.75799       60.02191       59.05258
H         84.28281       58.70526       59.98421
H         87.22765       58.51890       60.88973
H         85.78474       57.90921       61.77927
N         86.01680       57.12880       57.83797
C         86.14299       55.86327       57.14485
C         84.82447       55.14359       57.08245
O         84.80102       53.94125       57.30800
H         86.25675       57.96142       57.28761
H         86.91235       55.22192       57.62774
H         86.47351       56.06925       56.10345
N         83.66824       55.82139       56.82521
C         82.38333       55.13689       56.77015
C         82.33511       54.22536       55.55563
O         83.18699       54.32851       54.68237
C         81.22009       56.14984       56.80143
C         81.18805       56.88174       58.12517
N         80.90764       56.21826       59.27297
O         81.41079       58.08144       58.16224
H         83.70248       56.84664       56.70947
H         82.29792       54.49191       57.67266
H         80.24305       55.63908       56.68012
H         81.34404       56.87071       55.96327
H         80.69937       55.20908       59.26263
H         80.88126       56.71579       60.17553
N         81.40429       53.23542       55.49450
C         81.39094       52.20253       54.47032
C         80.06828       52.18718       53.75908
O         79.04031       52.11968       54.41875
H         80.71348       53.16043       56.25682
H         81.53773       51.22307       54.97063
H         82.22082       52.32934       53.74038
N         80.01387       52.23941       52.39762
C         78.74832       52.31529       51.67160
C         78.13965       53.71805       51.77070
O         77.06128       53.93014       51.23408
C         78.91839       51.86945       50.18934
C         79.76218       52.81043       49.31462
O         79.41811       50.55520       50.12893
H         80.90017       52.23441       51.87219
H         78.04492       51.57809       52.11959
H         77.90787       51.84827       49.72586
H         80.38570       50.57916       50.34885
H         79.27483       53.80060       49.25070
H         80.79474       52.92679       49.70275
H         79.82002       52.40566       48.28216
N         78.79627       54.72868       52.41587
C         78.34818       56.11419       52.48828
C         78.16503       56.53348       53.93927
O         78.41872       55.74031       54.83602
C         79.40554       57.03607       51.78395
C         80.80582       56.95550       52.46646
C         79.49297       56.69196       50.29079
C         81.85063       57.88449       51.85964
H         79.69143       54.53038       52.87243
H         77.36821       56.24110       51.97752
H         79.05024       58.08636       51.84402
H         81.22596       55.93132       52.40756
H         80.70468       57.22776       53.53788
H         78.48515       56.72817       49.82605
H         80.12736       57.42008       49.74709
H         79.92939       55.68535       50.15975
H         82.79480       57.77591       52.43374
H         82.07782       57.61006       50.81035
H         81.50269       58.93706       51.90620
N         77.78410       57.80858       54.23415
C         77.79973       58.36516       55.58021
C         76.42817       58.92951       55.98400
O         76.32312       59.52301       57.04714
C         78.93450       59.41296       55.58240
C         79.36504       59.91483       56.92932
O         80.29635       60.69972       56.98867
O         78.79266       59.48143       58.06888
H         77.56877       58.45606       53.46019
H         78.08067       57.58553       56.32228
H         78.66609       60.26369       54.92527
H         79.84035       58.93361       55.14873
N         75.31445       58.73024       55.21547
C         73.97860       59.19104       55.59599
C         73.88823       60.71465       55.55519
O         74.15524       61.26894       54.49757
C         72.92784       58.61426       54.61589
C         71.52928       59.08491       54.94810
C         70.90885       58.70755       56.15149
C         70.84172       59.92797       54.05808
C         69.62954       59.17849       56.46361
C         69.56371       60.39643       54.37374
C         68.95879       60.02444       55.57659
H         75.39917       58.17928       54.34969
H         73.74707       58.78859       56.60270
H         72.95396       57.50288       54.63260
H         73.19945       58.93774       53.58641
H         71.41756       58.05629       56.85120
H         71.29979       60.23522       53.12627
H         69.15962       58.89134       57.39535
H         69.04523       61.05280       53.68710
H         67.97079       60.39231       55.82082
N         73.46177       61.46700       56.62265
C         73.28759       62.91354       56.58715
C         74.50299       63.63463       56.06937
O         74.37220       64.46377       55.17958
C         73.03058       63.28875       58.05093
C         72.27112       62.08184       58.53800
C         73.07337       60.93978       57.91699
H         72.39485       63.15020       55.96344
H         73.98690       63.30491       58.62153
H         72.52264       64.26770       58.18787
H         72.13613       62.01227       59.63770
H         71.26557       62.10898       58.05578
H         73.99393       60.70108       58.49293
H         72.40541       60.06104       57.86598
N         75.73413       63.32653       56.56172
C         76.95192       63.95694       56.08395
C         77.09619       63.74164       54.58795
O         77.22499       64.71244       53.85517
C         78.19876       63.39125       56.78384
C         78.21837       63.54028       58.31946
C         79.58837       63.16640       58.80275
O         80.55068       63.80998       58.41376
O         79.80509       62.08167       59.56833
H         75.80009       62.59094       57.28061
H         76.90847       65.04745       56.30188
H         79.06995       63.93635       56.35667
H         78.30955       62.31773       56.53662
H         77.45460       62.87896       58.78211
H         78.01553       64.58982       58.61779
N         77.06219       62.48485       54.06559
C         77.19613       62.23060       52.64868
H         78.18676       62.58460       52.29283
H         77.11543       61.14002       52.45130
H         76.39035       62.75343       52.09092
H         76.91769       61.68104       54.69310
Ca        81.93384       61.42431       59.22598
O         82.50660       62.39237       62.09287
H         81.66013       62.81825       61.80548
H         83.17944       62.71167       61.43991
O         79.03445       59.25048       61.31216
H         78.84197       58.49881       61.92759
H         78.54378       60.01921       61.69765
O         81.88906       58.64367       62.10253
H         82.08145       58.64686       63.07358
H         82.62210       59.17356       61.70233

Ca 1.0



