%chk=apoCaM-CA-Ng.loop2.water3.frame427.chk
%nprocshared=20
%mem=10GB
%nosave
#b3lyp/svp scf=(tight,noincore,xqc) Test 
#IOP(5/87=12) Density=Current Pop=(MK,readradii) iop(6/33=2) iop(6/42=6)

apoCaM-CA-Ng.loop2.water3.frame427 

   -2  1 
C         89.26546       80.94862       73.89339
C         90.29209       82.03947       73.86217
O         90.76703       82.43670       74.91577
H         88.32209       81.31702       73.43878
H         89.63213       80.07020       73.32384
H         89.05617       80.63706       74.93993
N         90.70242       82.56432       72.67321
C         91.66812       83.65341       72.59435
C         91.02926       84.92954       73.11572
O         90.08737       85.41420       72.50282
C         92.14288       83.84310       71.13598
C         93.20927       84.89657       70.96485
O         93.65467       85.11973       69.85088
O         93.68771       85.59152       72.01604
H         90.32473       82.15884       71.80252
H         92.55938       83.37092       73.19944
H         91.27332       84.10586       70.49422
H         92.56069       82.87855       70.77378
N         91.47613       85.50931       74.26379
C         90.91184       86.73419       74.81648
C         90.14497       86.44782       76.09603
O         89.94764       87.36290       76.88343
C         92.04556       87.73989       75.04948
H         92.23069       85.04572       74.79355
H         90.19162       87.20984       74.11514
H         91.64196       88.69955       75.43882
H         92.77900       87.33726       75.78084
H         92.56832       87.94976       74.09239
N         89.60862       85.20943       76.33053
C         88.79700       84.85988       77.49195
C         89.60062       84.92904       78.79512
O         89.00271       84.87581       79.86082
C         87.54785       85.78003       77.52342
C         86.40671       85.18351       78.28978
O         85.95631       85.72892       79.28397
O         85.80679       84.09325       77.78002
H         89.73056       84.47420       75.62645
H         88.44453       83.81237       77.35311
H         87.15995       85.91127       76.48863
H         87.81094       86.78320       77.91847
N         90.96010       85.08689       78.78386
C         91.74514       85.41560       79.96096
C         91.81912       84.38618       81.06787
O         92.40265       84.73838       82.08356
H         91.47112       85.08335       77.89025
H         91.32733       86.35315       80.38659
H         92.79048       85.63100       79.64681
N         91.29919       83.12367       80.98433
C         91.35751       82.18505       82.11203
C         92.25872       80.99526       81.75919
O         92.74881       80.94652       80.63864
C         89.90478       81.80780       82.49743
C         89.68401       81.34580       83.92374
N         88.43989       81.00187       84.32801
O         90.59675       81.33236       84.73497
H         90.84652       82.81369       80.11131
H         91.81780       82.69345       82.98537
H         89.51381       81.06636       81.76739
H         89.27903       82.72426       82.41492
H         87.64653       81.02999       83.67121
H         88.26754       80.71529       85.30340
N         92.57926       80.03383       82.67706
C         93.54136       78.96818       82.42778
C         92.92566       77.60734       82.63388
O         92.43236       77.34164       83.72134
H         92.18374       80.07673       83.62103
H         94.37817       79.07914       83.15031
H         93.97602       79.03879       81.40895
N         92.93928       76.68329       81.62862
C         92.37772       75.34011       81.76089
C         91.16162       75.14662       80.86404
O         90.53107       74.10393       80.96750
C         93.46185       74.25857       81.49725
C         93.99481       74.23466       80.05325
O         94.52277       74.39369       82.41024
H         93.36293       76.94839       80.72707
H         92.01164       75.18904       82.80009
H         93.00149       73.26234       81.67719
H         95.03467       75.20864       82.16551
H         93.17016       74.03522       79.34117
H         94.48657       75.19125       79.78168
H         94.74050       73.41927       79.94281
N         90.75550       76.10974       79.98483
C         89.55869       76.01346       79.16216
C         88.64502       77.15716       79.55338
O         89.08664       78.29890       79.57325
C         89.91756       76.07476       77.64933
C         90.92586       74.97395       77.22567
C         88.64806       76.00523       76.77558
C         90.45163       73.52937       77.43136
H         91.29680       76.97993       79.89213
H         89.02466       75.05505       79.33752
H         90.40964       77.05146       77.44248
H         91.86973       75.11823       77.78789
H         91.16661       75.10704       76.14845
H         88.07974       75.07010       76.96179
H         87.97410       76.85906       76.98947
H         88.91633       76.05660       75.69936
H         91.24640       72.83224       77.09246
H         90.25333       73.31610       78.49937
H         89.53814       73.31531       76.84073
N         87.33570       76.91954       79.83399
C         86.38554       77.98069       80.13959
C         85.34245       77.50933       81.17001
O         84.36112       78.20476       81.38865
C         85.75902       78.41486       78.79764
C         85.02600       79.72652       78.84299
O         84.52301       80.16063       77.81954
O         84.96460       80.45882       79.97206
H         86.97307       75.96953       79.65894
H         86.92227       78.86708       80.54655
H         85.10436       77.60745       78.41416
H         86.57635       78.56979       78.05994
N         85.50141       76.33630       81.85527
C         84.51542       75.77662       82.77634
C         83.26490       75.34062       82.01594
O         83.40960       74.55712       81.08618
C         85.11430       74.51561       83.45928
C         84.09470       73.79674       84.31365
C         83.57051       74.39483       85.47035
C         83.63219       72.52575       83.92787
C         82.58433       73.74024       86.21604
C         82.64742       71.87579       84.67463
C         82.12027       72.48402       85.81577
H         86.37236       75.80227       81.73188
H         84.28319       76.51452       83.57231
H         86.00230       74.78419       84.07212
H         85.46477       73.82647       82.65817
H         83.91259       75.37302       85.78450
H         84.01756       72.04577       83.03664
H         82.17291       74.21072       87.09930
H         82.28725       70.90430       84.36170
H         81.35100       71.98212       86.38773
N         81.99769       75.70694       82.39133
C         80.80409       75.11557       81.80557
C         80.42082       75.76563       80.48983
O         79.50908       75.27716       79.83726
C         79.74539       75.35753       82.88333
C         80.14399       76.73073       83.39476
C         81.66381       76.59743       83.48664
H         80.93046       74.01973       81.65450
H         78.69240       75.24889       82.54668
H         79.92423       74.63757       83.71564
H         79.89812       77.46680       82.59600
H         79.65520       77.05899       84.33583
H         82.13835       77.59840       83.39523
H         81.95323       76.12039       84.43963
N         81.04578       76.89209       80.05599
C         80.73777       77.54372       78.79436
C         81.16918       76.64475       77.65484
O         80.34684       76.30772       76.81448
C         81.47737       78.88984       78.72643
C         80.93400       79.90411       79.75559
C         81.84033       81.09630       79.80442
O         82.36899       81.42697       80.85415
O         82.18288       81.71170       78.66056
H         81.77037       77.31786       80.65064
H         79.64671       77.75441       78.71914
H         81.37208       79.33464       77.71191
H         82.55332       78.69902       78.91383
H         80.88487       79.46116       80.77418
H         79.90796       80.20960       79.45886
N         82.45470       76.20317       77.57694
C         82.91679       75.34251       76.51153
H         83.99189       75.10377       76.65987
H         82.33872       74.39429       76.51158
H         82.79759       75.85347       75.53288
H         83.12776       76.47633       78.30667
Ca        83.99799       83.04222       78.59909
O         85.18073       83.41442       81.50828
H         86.06339       83.84220       81.37292
H         84.86548       83.76490       82.37893
O         81.85873       84.84188       79.94025
H         81.10631       84.22607       79.75289
H         81.63783       85.66430       79.43518
O         82.59645       83.62503       75.96758
H         83.09568       84.47617       75.88449
H         83.11819       82.97753       75.42996

Ca 1.0



