%chk=apoCaM-CA-Ng.loop1.water3.frame1221.chk
%nprocshared=20
%mem=10GB
%nosave
#b3lyp/svp scf=(tight,noincore,xqc) Test 
#IOP(5/87=12) Density=Current Pop=(MK,readradii) iop(6/33=2) iop(6/42=6)

apoCaM-CA-Ng.loop1.water3.frame1221 

   0  1 
C         35.14808       -3.50564      122.08751
C         33.97666       -4.43740      122.19793
O         33.55218       -4.96106      121.17873
H         36.00136       -4.03614      121.61699
H         34.87091       -2.63011      121.46308
H         35.46755       -3.13596      123.08441
N         33.42543       -4.70809      123.41783
C         32.29624       -5.61552      123.64336
C         30.93616       -4.97522      123.35197
O         30.02583       -5.09286      124.16366
C         32.35091       -6.15312      125.09916
C         32.27469       -5.08314      126.17281
O         32.38289       -5.43978      127.46535
O         32.12918       -3.90187      125.89309
H         33.90957       -4.31289      124.23571
H         32.41210       -6.49316      122.96842
H         33.30900       -6.69791      125.22624
H         31.52354       -6.87805      125.26491
N         30.71347       -4.28670      122.20456
C         29.41877       -3.73471      121.85308
C         28.45638       -4.88817      121.59985
O         27.43277       -4.92190      122.26850
C         29.53210       -2.68857      120.70969
C         30.62546       -1.61758      120.97893
C         30.49609       -0.89412      122.33601
C         31.66822        0.06147      122.61610
N         31.75209        1.14559      121.63909
H         31.48198       -4.14154      121.55541
H         29.02864       -3.15142      122.71571
H         28.54718       -2.18641      120.59145
H         29.77436       -3.15512      119.73565
H         30.58685       -0.88238      120.14974
H         31.62914       -2.08900      120.94119
H         30.52380       -1.63354      123.16333
H         29.53046       -0.34727      122.38420
H         32.62462       -0.50963      122.62579
H         31.52703        0.49783      123.63037
H         31.98715        0.77110      120.69304
H         30.84752        1.66872      121.60685
H         32.51564        1.79937      121.92539
N         28.71409       -5.93492      120.75050
C         29.86452       -6.05692      119.84671
C         30.81733       -7.17991      120.16771
O         30.54406       -8.03410      120.99887
C         29.39148       -6.16035      118.39609
C         28.17953       -7.02607      118.21779
O         28.18482       -8.38192      118.09422
O         27.12290       -6.42915      118.09975
H         28.02458       -6.70336      120.74678
H         30.49802       -5.16462      119.90349
H         30.18602       -6.40445      117.65935
H         29.05903       -5.12815      118.14425
N         32.04054       -7.14731      119.55617
C         33.12178       -8.07415      119.81834
C         32.88201       -9.42961      119.22220
O         31.90222       -9.62110      118.52861
H         32.24944       -6.36389      118.91700
H         33.30462       -8.13075      120.91068
H         34.04468       -7.69074      119.32928
N         33.78584      -10.42240      119.43211
C         33.69099      -11.74999      118.81780
C         35.08388      -12.26413      118.47193
O         36.05683      -11.68353      118.93500
C         32.96124      -12.71652      119.77796
C         31.53979      -12.27484      119.97289
O         30.69468      -12.17444      118.91758
O         31.15710      -11.97839      121.09087
H         34.58592      -10.20354      120.04502
H         33.13283      -11.66617      117.86241
H         33.49683      -12.73499      120.75591
H         32.94414      -13.75013      119.40010
N         35.31650      -13.33661      117.66072
C         34.33501      -14.12911      116.93454
C         33.63077      -13.35386      115.84840
O         34.27869      -12.61296      115.12203
H         36.30224      -13.61087      117.52425
H         33.62007      -14.63597      117.60574
H         34.88704      -14.93912      116.41499
N         32.30714      -13.57384      115.60910
C         31.57840      -12.92390      114.52815
C         31.27849      -11.49001      114.90894
O         30.89069      -11.23049      116.03727
C         30.28094      -13.68352      114.15879
C         30.59085      -15.10782      113.66786
O         29.62822      -12.98038      113.12879
H         31.81360      -14.27285      116.18406
H         32.18970      -12.94821      113.59632
H         29.62391      -13.74273      115.05141
H         28.74985      -13.41888      112.97989
H         29.65245      -15.61247      113.35316
H         31.27853      -15.07919      112.79484
H         31.05201      -15.71600      114.47197
N         31.42849      -10.51172      113.97882
C         31.20560       -9.08630      114.17448
C         29.76493       -8.79567      114.54995
O         29.36719       -9.05757      115.67457
C         32.21399       -8.43257      115.17152
C         33.63496       -9.00962      114.94516
C         32.18210       -6.89814      115.01071
C         34.74452       -8.32654      115.73988
H         31.72445      -10.79300      113.03163
H         31.40790       -8.62709      113.18061
H         31.92251       -8.67064      116.21551
H         33.90246       -8.96319      113.86854
H         33.61811      -10.07510      115.25764
H         32.82000       -6.40621      115.77446
H         32.54609       -6.60848      114.00125
H         31.15487       -6.50120      115.14741
H         34.89922       -7.29190      115.36932
H         34.50719       -8.30965      116.82315
H         35.69370       -8.88195      115.58522
N         28.94028       -8.20137      113.64967
C         27.59046       -7.76068      113.96406
C         26.53487       -8.33739      113.04610
O         25.37883       -8.00441      113.27351
C         27.54264       -6.21098      113.96586
C         28.14751       -5.59167      112.70612
O         28.25853       -5.71883      115.06220
H         29.30801       -7.99996      112.70929
H         27.28242       -8.10126      114.97979
H         26.48267       -5.87199      114.04984
H         27.74806       -6.00127      115.85769
H         29.24627       -5.76547      112.69134
H         27.69404       -6.02271      111.79104
H         27.99074       -4.49426      112.71977
N         26.79727       -9.20810      112.02260
C         25.69282       -9.80518      111.27888
C         24.96236      -10.71399      112.25722
O         25.50188      -11.75311      112.60927
C         26.17725      -10.53718      109.99973
C         24.99975      -11.06215      109.17160
O         26.89846       -9.63802      109.19393
H         27.76597       -9.47632      111.79894
H         25.03368       -8.97553      110.93447
H         26.82165      -11.40963      110.26463
H         27.85502       -9.70927      109.45058
H         24.42432      -11.82363      109.73717
H         24.32055      -10.22624      108.89526
H         25.37358      -11.52792      108.23388
N         23.79895      -10.29710      112.84141
C         23.11848      -10.97706      113.94306
C         23.92870      -11.05305      115.22621
O         25.08160      -11.45122      115.20939
C         22.61385      -12.37655      113.57303
C         21.46870      -12.26975      112.56941
C         20.78242      -13.61814      112.35668
C         19.45979      -13.40550      111.61261
N         18.79700      -14.67624      111.33794
H         23.38617       -9.40698      112.52360
H         22.21704      -10.37626      114.19911
H         22.18973      -12.82612      114.50008
H         23.42839      -13.04230      113.21766
H         21.82700      -11.85677      111.60033
H         20.71758      -11.56993      112.99750
H         20.54594      -14.08399      113.33977
H         21.46416      -14.29454      111.79670
H         19.64417      -12.86949      110.65671
H         18.79136      -12.77544      112.24536
H         18.60029      -15.18422      112.23092
H         17.89312      -14.48421      110.84900
H         19.40243      -15.26211      110.71904
N         23.30206      -10.81116      116.41530
C         23.94018      -10.98735      117.71137
C         25.03753       -9.98129      117.92426
O         26.14838      -10.40909      118.20132
C         22.92515      -10.92950      118.87282
C         21.96011      -12.11862      118.82041
C         21.02653      -12.10702      119.99352
O         21.01878      -13.14103      120.85605
O         20.26588      -11.16836      120.16808
H         22.30497      -10.54975      116.39974
H         24.39401      -12.00427      117.76023
H         22.34340       -9.99098      118.86389
H         23.48295      -10.98126      119.83553
H         22.54898      -13.06173      118.83873
H         21.36519      -12.09159      117.88416
N         24.86817       -8.63601      117.83539
C         23.67172       -7.91907      117.45599
H         22.86340       -8.05971      118.19117
H         23.89491       -6.82925      117.43663
H         23.35150       -8.21167      116.43669
H         25.68262       -8.07251      118.03258
Ca        29.40727      -10.30024      118.47252
O         28.27783      -10.55389      120.89083
H         28.22097       -9.96984      121.68451
H         28.90154      -11.27131      121.15615
O         27.89729      -13.06015      118.60010
H         26.96025      -12.78992      118.76566
H         28.17613      -13.50511      119.43929
O         28.14933      -11.71530      115.63197
H         27.68444      -12.51634      115.28426
H         27.43663      -11.04545      115.76743

Ca 1.0



