%chk=apoCaM-CA-Ng.loop3.water6.frame378.chk
%nprocshared=20
%mem=10GB
%nosave
#b3lyp/svp scf=(tight,noincore,xqc) Test 
#IOP(5/87=12) Density=Current Pop=(MK,readradii) iop(6/33=2) iop(6/42=6)

apoCaM-CA-Ng.loop3.water6.frame378 

   0  1 
C         47.62982      110.02872        9.31437
C         49.02199      109.59716        8.94492
O         49.79400      109.27807        9.83404
H         47.11516      109.20788        9.85731
H         47.67459      110.92644        9.96458
H         47.02802      110.27891        8.41407
N         49.40083      109.55869        7.63554
C         50.68978      109.10950        7.10817
C         51.88599      110.01269        7.42656
O         52.92349      109.78395        6.81917
C         50.98140      107.64930        7.53233
C         52.12225      107.04714        6.75989
O         53.24748      106.67575        7.39484
O         52.03761      106.90134        5.55129
H         48.69573      109.82297        6.92981
H         50.57578      109.12963        6.00017
H         50.08656      107.01241        7.36416
H         51.22904      107.62742        8.61362
N         51.86620      111.01126        8.36129
C         53.05577      111.79972        8.68383
C         53.65895      111.41121       10.03201
O         54.68220      111.98010       10.38830
C         52.73566      113.30739        8.66794
C         52.26235      113.81776        7.29878
C         52.19725      115.35612        7.30986
C         51.84652      115.96978        5.94537
N         50.46263      115.70757        5.55179
H         51.01726      111.19586        8.90877
H         53.86185      111.61498        7.94078
H         53.67254      113.84736        8.92807
H         51.97097      113.54728        9.44065
H         51.27426      113.37229        7.05480
H         52.99780      113.50681        6.52547
H         53.20896      115.73242        7.57875
H         51.48083      115.71459        8.08117
H         52.54650      115.58933        5.16839
H         51.98721      117.07136        6.01765
H         49.80951      116.10587        6.26534
H         50.28024      116.17711        4.63523
H         50.29201      114.68372        5.44108
N         53.10912      110.45367       10.83326
C         53.68109      110.08146       12.12585
C         55.04273      109.42291       11.93837
O         55.21162      108.67223       10.98800
C         52.71660      109.12597       12.86038
C         53.02403      108.98011       14.32684
O         52.11323      109.36725       15.24036
O         54.08259      108.51263       14.70409
H         52.24226      109.98588       10.53496
H         53.76111      111.00063       12.74878
H         52.71670      108.13359       12.36244
H         51.69140      109.55307       12.80010
N         56.05299      109.63245       12.82942
C         57.36439      109.00200       12.72836
C         57.38234      107.48558       12.91740
O         58.46750      106.92895       12.83994
H         55.89587      110.28828       13.60902
H         58.02438      109.43193       13.51225
H         57.80957      109.25189       11.74009
N         56.25343      106.74679       13.14161
C         56.24289      105.28766       13.25582
C         55.57741      104.64846       12.04436
O         55.71538      103.44318       11.88392
C         55.45161      104.85635       14.51347
C         56.07579      105.28908       15.81141
N         57.25327      104.76293       16.21787
O         55.49110      106.08848       16.52618
H         55.34838      107.21807       13.19079
H         57.28213      104.89447       13.29203
H         55.34967      103.75079       14.54907
H         54.42552      105.28492       14.43699
H         57.74008      104.05918       15.64417
H         57.66264      105.03596       17.12367
N         54.79892      105.36391       11.18385
C         54.07169      104.79600       10.06593
C         52.56706      104.87146       10.28514
O         51.82585      104.55016        9.37165
H         54.64377      106.36448       11.34305
H         54.33813      103.73276        9.88913
H         54.35825      105.36910        9.16301
N         52.04934      105.25510       11.49067
C         50.62629      105.26348       11.81187
C         50.47705      104.93135       13.28242
O         51.07247      105.60279       14.11162
C         50.01924      106.64000       11.50861
C         48.58234      106.73979       11.96457
C         47.58445      105.93344       11.39295
C         48.23676      107.63674       12.98978
C         46.26369      106.02078       11.84547
C         46.91895      107.71823       13.44331
C         45.92705      106.90892       12.87311
O         44.65199      106.97456       13.30589
H         52.69698      105.47965       12.25690
H         50.08919      104.49675       11.21216
H         50.07729      106.83505       10.42104
H         50.61918      107.40854       12.03006
H         47.82816      105.23723       10.60052
H         48.99002      108.26493       13.44951
H         45.50159      105.39401       11.40016
H         46.67232      108.40759       14.24091
H         44.38213      107.56999       14.01987
N         49.69173      103.89262       13.67542
C         49.65349      103.44774       15.06055
C         51.00467      102.82406       15.35914
O         51.67259      103.26466       16.28534
C         48.47132      102.46652       15.31028
C         47.09616      103.07956       14.90531
C         48.43335      102.01496       16.78456
C         46.70969      104.37381       15.63477
H         49.15498      103.37756       12.96386
H         49.48693      104.31953       15.73088
H         48.62008      101.55955       14.68361
H         46.30160      102.32450       15.08987
H         47.08385      103.29524       13.81701
H         49.37025      101.50422       17.07269
H         48.30737      102.87696       17.47105
H         47.59846      101.30035       16.94512
H         47.43317      105.18745       15.42244
H         45.71497      104.71262       15.27656
H         46.63892      104.21720       16.72983
N         51.50923      101.84848       14.54467
C         52.85339      101.30445       14.71144
C         52.97523      100.42218       15.94069
O         54.09168      100.13565       16.34579
C         53.27991      100.49996       13.47139
O         53.15386      101.26649       12.30399
H         50.94732      101.55016       13.73124
H         53.54813      102.16748       14.81400
H         52.62598       99.60781       13.36823
H         54.32869      100.14045       13.57250
H         53.76210      102.04101       12.40495
N         51.86582       99.94878       16.57799
C         51.88078       99.16216       17.80302
C         52.53634       99.94459       18.92511
O         53.28764       99.38098       19.71151
C         52.51145       97.78120       17.57689
H         50.93794      100.17191       16.19713
H         50.81867       99.00032       18.09564
H         51.98118       97.25546       16.75503
H         53.58458       97.86842       17.30840
H         52.42879       97.16590       18.49766
N         52.29784      101.27943       19.03437
C         52.84717      102.12741       20.07442
C         51.69932      102.81558       20.76411
O         50.92879      103.49296       20.09510
C         53.80160      103.15868       19.46907
H         51.69475      101.73206       18.33090
H         53.43658      101.53326       20.80759
H         54.21597      103.80060       20.27647
H         54.64877      102.64386       18.96779
H         53.28402      103.80033       18.72512
N         51.51437      102.67502       22.10435
C         50.41840      103.28346       22.84673
C         49.09137      102.71299       22.36722
O         48.20460      103.46448       21.98418
C         50.45857      104.83069       22.74608
C         51.82046      105.42145       23.13740
C         51.82226      106.91020       22.94111
O         52.05329      107.73174       23.98162
O         51.62523      107.38247       21.83242
H         52.18570      102.10184       22.63906
H         50.53730      103.00355       23.91709
H         49.66835      105.25976       23.40086
H         50.23155      105.14141       21.70509
H         52.62295      104.99584       22.49692
H         52.04463      105.17473       24.19708
N         48.90395      101.36299       22.34733
C         47.68136      100.73271       21.88878
H         46.90713      101.47111       21.59150
H         47.90518      100.09093       21.01070
H         47.26678      100.10019       22.70080
H         49.66958      100.74466       22.65499
Ca        54.18812      108.60970       17.56576
O         53.99691      111.59365       17.20305
H         54.53706      111.84243       17.99484
H         54.64684      111.56753       16.45645
O         56.44160      109.04485       19.51569
H         56.49162      109.90361       19.02538
H         55.69071      109.16595       20.14983
O         52.25422      109.75017       19.57291
H         52.55968      108.83124       19.77847
H         52.91744      110.33514       20.01801
O         51.90065      106.56046       16.91615
H         52.54183      106.52577       16.16264
H         52.07440      105.72977       17.42509
O         56.76592      109.32165       16.05129
H         56.98739      110.18660       16.47899
H         57.38332      108.66978       16.46799
O         54.25466      106.40057       19.49989
H         53.99631      106.50837       20.44908
H         55.23619      106.27195       19.52110

Ca 1.0



