%chk=apoCaM-CA-Ng.loop3.water3.frame568.chk
%nprocshared=20
%mem=10GB
%nosave
#b3lyp/svp scf=(tight,noincore,xqc) Test 
#IOP(5/87=12) Density=Current Pop=(MK,readradii) iop(6/33=2) iop(6/42=6)

apoCaM-CA-Ng.loop3.water3.frame568 

   0  1 
C         57.67265       -9.03429       73.74647
C         56.98267      -10.33851       73.46498
O         55.97110      -10.62563       74.08831
H         58.57428       -8.90684       73.10893
H         56.98013       -8.19218       73.54082
H         57.99079       -9.00159       74.80872
N         57.48009      -11.17996       72.51966
C         56.87466      -12.46080       72.17202
C         56.89043      -13.38947       73.38904
O         57.95794      -13.67775       73.91064
C         57.63104      -13.01812       70.94723
C         57.11032      -14.29531       70.38303
O         57.66878      -14.80017       69.42396
O         56.13115      -14.96538       70.99276
H         58.32581      -10.87972       72.00879
H         55.82541      -12.27615       71.85664
H         58.70051      -13.16923       71.20960
H         57.56632      -12.25746       70.14504
N         55.71391      -13.82293       73.93535
C         55.61768      -14.53068       75.21856
C         56.23292      -15.92855       75.20353
O         56.48775      -16.46363       76.27406
C         54.12391      -14.59610       75.63224
C         53.79274      -15.03307       77.07218
C         54.38129      -14.07569       78.12444
C         53.73262      -14.22233       79.51320
N         53.90747      -15.55271       80.09356
H         54.83952      -13.53620       73.46943
H         56.16678      -13.90437       75.95392
H         53.58666      -15.26337       74.92155
H         53.69154      -13.57728       75.51607
H         54.11054      -16.07872       77.26740
H         52.68358      -14.99602       77.15054
H         54.18360      -13.02868       77.80685
H         55.48132      -14.21742       78.19112
H         52.64588      -13.99321       79.43650
H         54.18843      -13.46687       80.19143
H         53.42396      -16.27346       79.51200
H         54.92406      -15.77829       80.18140
H         53.47439      -15.55922       81.04596
N         56.43567      -16.60642       74.03927
C         56.98814      -17.95837       73.95424
C         58.21393      -18.01930       73.03499
O         58.79312      -19.09173       72.93509
C         55.88464      -18.99155       73.55397
C         54.97516      -18.53052       72.45056
O         55.19363      -18.89938       71.18264
O         54.20941      -17.60293       72.66034
H         56.14320      -16.15884       73.16203
H         57.36234      -18.29332       74.94696
H         55.22451      -19.17559       74.42791
H         56.35599      -19.96531       73.29819
N         58.70600      -16.92498       72.37101
C         59.92762      -16.96126       71.57335
C         59.86673      -17.84666       70.34000
O         60.89953      -17.98370       69.69751
H         58.25448      -16.00892       72.47392
H         60.75588      -17.31849       72.22555
H         60.18475      -15.93171       71.24148
N         58.73181      -18.50283       69.95849
C         58.68874      -19.48569       68.88109
C         57.65706      -19.14048       67.81318
O         56.73638      -18.37825       68.06116
C         58.38248      -20.84504       69.55388
C         58.23289      -22.02333       68.62426
N         59.12345      -23.03985       68.64937
O         57.27629      -22.08225       67.86649
H         57.87200      -18.37281       70.50168
H         59.67899      -19.55114       68.37776
H         57.44617      -20.76721       70.15054
H         59.21199      -21.04067       70.26880
H         59.93272      -23.01981       69.28610
H         59.00384      -23.84958       68.02344
N         57.75909      -19.71257       66.58075
C         56.76614      -19.60077       65.52497
C         56.48866      -18.17905       65.11326
O         57.42336      -17.44807       64.81641
H         58.57837      -20.30898       66.38415
H         55.82605      -20.09646       65.85003
H         57.14311      -20.15124       64.63609
N         55.19962      -17.73790       65.01383
C         54.86369      -16.38495       64.58397
C         55.24182      -15.36544       65.65022
O         55.71352      -15.74357       66.71274
C         53.36390      -16.27972       64.20715
C         52.99099      -17.17714       63.04197
C         53.62538      -17.03025       61.79305
C         51.98880      -18.15329       63.18236
C         53.27152      -17.84679       60.71457
C         51.63145      -18.96460       62.09844
C         52.27373      -18.81411       60.86085
O         51.93921      -19.58696       59.80721
H         54.43355      -18.40472       65.19697
H         55.45321      -16.14880       63.67216
H         53.12412      -15.24201       63.89595
H         52.74366      -16.51296       65.09857
H         54.39394      -16.28290       61.64687
H         51.47649      -18.28322       64.12701
H         53.77100      -17.72345       59.76130
H         50.85344      -19.70782       62.22020
H         51.24923      -20.26356       59.86124
N         55.10524      -14.03300       65.38567
C         55.54744      -12.93768       66.24641
C         54.78815      -12.87363       67.57034
O         54.84828      -13.81699       68.34473
C         57.08655      -12.98563       66.52333
C         57.53212      -11.64741       67.18038
C         57.89278      -13.26473       65.24136
C         58.98949      -11.61936       67.64230
H         54.72304      -13.75973       64.46815
H         55.35776      -11.99762       65.68045
H         57.29616      -13.82191       67.21676
H         56.91334      -11.44973       68.07878
H         57.36363      -10.80971       66.46857
H         58.97439      -13.35414       65.46742
H         57.60055      -14.23870       64.79748
H         57.73615      -12.46348       64.49108
H         59.69219      -11.72123       66.79285
H         59.19397      -10.64284       68.13136
H         59.17907      -12.42901       68.37692
N         54.16081      -11.72207       67.94898
C         53.74346      -11.49283       69.33179
C         52.35454      -12.01065       69.66323
O         51.99388      -11.94066       70.82988
C         53.81926       -9.99050       69.66304
O         55.12751       -9.51235       69.48586
H         54.20173      -10.91801       67.30423
H         54.46779      -11.99997       70.00473
H         53.53746       -9.81465       70.72337
H         53.09531       -9.41392       69.03973
H         55.18277       -9.13964       68.56750
N         51.49575      -12.49152       68.71969
C         50.13214      -12.89415       69.05884
C         50.13046      -14.15623       69.90907
O         50.59986      -15.17000       69.41355
C         49.31778      -13.14193       67.78411
H         51.79153      -12.50677       67.73225
H         49.64846      -12.05043       69.57815
H         49.76291      -13.96339       67.18201
H         48.27159      -13.41001       68.04553
H         49.29854      -12.21961       67.16523
N         49.63417      -14.23346       71.18101
C         49.05537      -13.14029       71.95924
C         47.76388      -12.62816       71.33107
O         46.88540      -13.45053       71.10897
C         48.72772      -13.63560       73.37718
H         49.69960      -15.15724       71.63987
H         49.81967      -12.36125       72.09505
H         48.31814      -12.80516       73.99065
H         47.98109      -14.45906       73.35018
H         49.64838      -14.01063       73.87333
N         47.50280      -11.31156       71.05272
C         48.39092      -10.18054       71.32941
C         48.33593       -9.06276       70.28757
O         49.28898       -8.29505       70.24971
C         48.16547       -9.59747       72.74506
C         46.72775       -9.11842       73.03042
C         45.77614      -10.26305       73.24663
O         44.78827      -10.39048       72.54162
O         45.99764      -11.13960       74.24586
H         46.54817      -11.11461       70.72803
H         49.44091      -10.51667       71.27892
H         48.84875       -8.72690       72.85927
H         48.45979      -10.33675       73.51992
H         46.37621       -8.45008       72.21401
H         46.73224       -8.53057       73.97235
N         47.27108       -8.85251       69.45806
C         47.21542       -7.75726       68.50846
H         46.36665       -7.09004       68.76861
H         48.14296       -7.14652       68.50092
H         47.05721       -8.16185       67.48794
H         46.43809       -9.44959       69.50024
Ca        55.82187      -17.01761       70.21748
O         53.68494      -19.24610       68.58156
H         53.06340      -19.00355       69.31369
H         54.17990      -20.03194       68.92505
O         53.13909      -14.98364       71.09491
H         53.41412      -14.15890       71.56732
H         52.62150      -15.49243       71.76779
O         52.99757      -16.31205       68.03878
H         52.24733      -16.65070       67.48948
H         52.81544      -15.34400       68.12904

Ca 1.0



