%chk=apoCaM-CA-Ng.loop2.water4.frame1460.chk
%nprocshared=20
%mem=10GB
%nosave
#b3lyp/svp scf=(tight,noincore,xqc) Test 
#IOP(5/87=12) Density=Current Pop=(MK,readradii) iop(6/33=2) iop(6/42=6)

apoCaM-CA-Ng.loop2.water4.frame1460 

   -2  1 
C         59.21441       92.97553       61.97015
C         60.48858       93.52693       61.38867
O         60.89045       94.60664       61.79703
H         58.45287       92.83467       61.17654
H         59.42615       92.00380       62.46684
H         58.80118       93.66684       62.73523
N         61.23196       92.84992       60.46550
C         60.87520       91.54083       59.91813
C         60.91210       91.47673       58.39091
O         60.53082       90.44180       57.86096
C         61.77538       90.45865       60.55492
C         63.25873       90.61144       60.32828
O         64.09824       89.74117       60.91711
O         63.71704       91.50788       59.63895
H         62.13276       93.27235       60.19663
H         59.83621       91.28017       60.20191
H         61.46596       89.45590       60.18880
H         61.60397       90.48506       61.65280
N         61.37001       92.50384       57.61294
C         61.45489       92.42331       56.15390
C         62.28539       91.22872       55.73088
O         61.81839       90.41920       54.94233
C         62.08779       93.70355       55.58596
H         61.70383       93.36733       58.06193
H         60.43393       92.32839       55.72306
H         63.11369       93.85506       55.98779
H         62.15068       93.64297       54.47787
H         61.47119       94.58676       55.85409
N         63.52397       91.05323       56.25881
C         64.40251       89.93519       55.93568
C         64.59423       89.06222       57.16947
O         65.26090       89.46854       58.10953
C         65.73157       90.44583       55.31635
C         66.49745       91.45696       56.14297
O         67.55953       91.89436       55.72845
O         66.01681       91.87498       57.33140
H         63.81893       91.74419       56.95605
H         63.92545       89.29563       55.16291
H         65.50295       90.92383       54.34077
H         66.39069       89.56946       55.12752
N         63.95498       87.85877       57.26097
C         63.99999       87.03907       58.46075
C         65.31722       86.33061       58.67597
O         65.48358       85.76352       59.74669
H         63.33412       87.55715       56.49560
H         63.21758       86.25152       58.40839
H         63.76035       87.67814       59.33644
N         66.26651       86.24566       57.69756
C         67.51667       85.51101       57.86842
C         68.73886       86.39621       57.64116
O         69.83896       85.89023       57.78112
C         67.54492       84.28907       56.92359
C         66.43095       83.31145       57.23271
N         66.70849       82.05952       57.66908
O         65.26619       83.65114       57.08660
H         66.08071       86.66453       56.77449
H         67.60021       85.11622       58.90185
H         68.51883       83.76796       57.04961
H         67.46790       84.61280       55.86283
H         67.68038       81.74597       57.80394
H         65.94568       81.39946       57.88279
N         68.64754       87.70800       57.28312
C         69.80784       88.55621       57.04006
C         69.67019       89.86241       57.78706
O         68.63113       90.46910       57.63585
H         67.72261       88.13145       57.12705
H         69.80197       88.81231       55.95930
H         70.76552       88.04017       57.24997
N         70.63296       90.43800       58.56048
C         71.94575       89.87262       58.83211
C         71.87071       88.72078       59.82190
O         72.90182       88.10095       60.04816
C         72.89642       90.96281       59.39903
C         73.12866       92.09352       58.38480
O         72.36312       91.48688       60.58999
H         70.41688       91.37268       58.94072
H         72.38757       89.51543       57.87613
H         73.88349       90.48891       59.60925
H         73.08813       92.00043       61.03265
H         73.83617       92.83861       58.80614
H         73.56935       91.68424       57.45118
H         72.18386       92.61892       58.13399
N         70.71557       88.39387       60.47787
C         70.64360       87.34266       61.48192
C         69.66268       86.28295       61.00395
O         68.49253       86.62075       60.88546
C         70.17202       87.92648       62.84929
C         71.01800       89.13586       63.32929
C         70.10886       86.82292       63.92343
C         72.49826       88.85075       63.56771
H         69.84781       88.91642       60.29018
H         71.64195       86.92137       61.65870
H         69.13999       88.32224       62.72826
H         70.58226       89.51764       64.27896
H         70.94432       89.95283       62.58277
H         71.09796       86.34725       64.05920
H         69.76398       87.23997       64.89285
H         69.39381       86.02586       63.63004
H         72.99985       89.77758       63.91675
H         72.61527       88.08651       64.35199
H         73.00279       88.51731       62.64048
N         69.98156       84.98248       60.73333
C         71.31460       84.37554       60.73364
C         71.44658       83.37169       61.85642
O         70.48145       83.11819       62.56117
C         71.57879       83.68481       59.36566
C         70.64648       82.54203       59.00898
O         70.79021       81.96904       57.94167
O         69.67532       82.12321       59.84481
H         69.18971       84.36754       60.50105
H         72.10987       85.12240       60.86849
H         72.61262       83.28441       59.33930
H         71.52989       84.44506       58.56732
N         72.63036       82.71251       62.03395
C         72.70343       81.49974       62.83165
C         74.13416       81.25970       63.31585
O         75.03958       81.38491       62.50793
C         72.26911       80.33582       61.91216
C         71.86034       79.12602       62.70028
C         72.61492       77.94560       62.66925
C         70.68409       79.17800       63.47053
C         72.20206       76.83465       63.41233
C         70.27194       78.06565       64.20343
C         71.03182       76.89447       64.17699
H         73.40303       82.92003       61.38689
H         71.99667       81.58168       63.68190
H         73.08233       80.11786       61.18429
H         71.37735       80.61826       61.31216
H         73.52200       77.88913       62.08092
H         70.08353       80.08021       63.49552
H         72.78830       75.92613       63.39445
H         69.36312       78.11407       64.78942
H         70.71129       76.03343       64.74760
N         74.43248       80.84437       64.58934
C         73.46757       80.48606       65.60867
C         72.97012       81.67614       66.40405
O         72.00609       81.51374       67.13351
C         74.26853       79.53728       66.50740
C         75.64639       80.17619       66.47925
C         75.78837       80.52670       65.00076
H         72.60599       79.92939       65.19353
H         73.83880       79.36152       67.51650
H         74.35727       78.55580       65.98711
H         75.59243       81.12057       67.06616
H         76.47807       79.56269       66.88442
H         76.49410       81.37550       64.86953
H         76.13187       79.64931       64.41023
N         73.61424       82.87921       66.36916
C         73.19090       84.01420       67.17994
C         73.27435       83.63865       68.65958
O         74.38564       83.41851       69.12112
C         74.10382       85.23434       66.91233
C         73.99561       85.72680       65.46333
C         74.95615       86.85062       65.20063
O         74.88910       87.98608       65.92149
O         75.79921       86.74209       64.32420
H         74.44900       82.97747       65.77810
H         72.17281       84.29760       66.86949
H         75.15958       84.95671       67.13031
H         73.81361       86.06864       67.58982
H         72.95983       86.06895       65.29079
H         74.20852       84.90869       64.74437
N         72.19665       83.50916       69.49434
C         70.79368       83.63366       69.14273
H         70.33024       84.43852       69.74870
H         70.59637       83.84356       68.08127
H         70.28145       82.67621       69.37830
H         72.38518       83.26346       70.47882
Ca        66.97850       91.74167       59.36824
O         66.93283       89.12844       61.25116
H         66.72104       88.49519       61.98251
H         66.73290       88.62596       60.42166
O         66.10549       92.54900       62.43323
H         65.32988       93.16191       62.37740
H         66.84835       93.11866       62.75612
O         69.07388       91.47355       61.39024
H         68.99955       91.69858       62.35083
H         69.29988       92.33148       60.95096
O         67.23458       94.56428       59.55939
H         67.20015       94.60787       60.54776
H         68.09636       94.11721       59.36231

Ca 1.0



