%chk=apoCaM-CA-Ng.loop3.water5.frame105.chk
%nprocshared=20
%mem=10GB
%nosave
#b3lyp/svp scf=(tight,noincore,xqc) Test 
#IOP(5/87=12) Density=Current Pop=(MK,readradii) iop(6/33=2) iop(6/42=6)

apoCaM-CA-Ng.loop3.water5.frame105 

   0  1 
C         43.02411       77.75274       93.13603
C         43.90828       78.54335       92.21713
O         43.79602       79.76037       92.19731
H         41.96158       77.92534       92.86903
H         43.23130       76.66451       93.06093
H         43.19254       78.07461       94.18447
N         44.80576       77.90901       91.40814
C         45.69132       78.58546       90.46854
C         44.86717       79.38062       89.46981
O         45.05365       80.58511       89.35337
C         46.74020       79.43988       91.23094
C         47.82649       80.01913       90.35535
O         47.85735       79.80782       89.15257
O         48.79050       80.77366       90.91599
H         44.85546       76.87922       91.43861
H         46.25191       77.80288       89.90943
H         47.24026       78.79654       91.98623
H         46.23799       80.27291       91.76667
N         43.90581       78.75732       88.72730
C         43.06923       79.47056       87.77159
C         41.62073       79.43297       88.22306
O         40.75353       78.99029       87.48117
C         43.25757       78.90219       86.35144
C         44.72677       78.94715       85.89816
C         44.90666       78.61190       84.40867
C         44.39196       77.21858       84.01440
N         44.62931       76.96500       82.59346
H         43.75199       77.74476       88.85291
H         43.35005       80.54572       87.72997
H         42.64527       79.51611       85.65430
H         42.89454       77.85236       86.32222
H         45.32954       78.24859       86.51927
H         45.12272       79.97511       86.05006
H         45.99177       78.67551       84.17403
H         44.37650       79.37820       83.80217
H         43.29945       77.15020       84.20534
H         44.90759       76.44133       84.62024
H         44.24531       76.02537       82.34313
H         44.14785       77.69062       82.01334
H         45.65547       76.97776       82.39230
N         41.29355       79.93169       89.44766
C         39.92676       80.06184       89.93625
C         39.70643       81.54048       90.20566
O         40.48113       82.11009       90.96444
C         39.74836       79.20781       91.20691
C         38.29929       79.01363       91.56772
O         37.56515       79.96688       91.75721
O         37.79849       77.76708       91.66475
H         42.05517       80.27365       90.05448
H         39.20700       79.68936       89.17350
H         40.30930       79.65981       92.05366
H         40.16943       78.19528       91.02165
N         38.72858       82.25254       89.57411
C         38.66604       83.70830       89.65648
C         38.49904       84.26873       91.05667
O         38.73333       85.45666       91.22608
H         38.06965       81.76671       88.94724
H         37.85841       84.10572       89.00521
H         39.63131       84.09149       89.25900
N         38.09203       83.49498       92.10040
C         38.00219       83.97317       93.47860
C         38.83680       83.08541       94.39656
O         39.65047       83.60089       95.14993
C         36.53035       84.12887       93.92108
C         35.71209       82.86631       94.01661
N         35.09759       82.53922       95.17816
O         35.56477       82.15565       93.03491
H         37.81467       82.52785       91.89889
H         38.40900       85.00665       93.55515
H         36.02926       84.80959       93.19821
H         36.52430       84.64139       94.90817
H         35.18209       83.13989       96.01161
H         34.51534       81.69281       95.24219
N         38.73213       81.72861       94.33034
C         39.51642       80.79577       95.11956
C         38.99726       80.69302       96.52637
O         38.13698       81.47389       96.91209
H         38.08699       81.31282       93.65349
H         40.60324       81.02505       95.07451
H         39.37099       79.78688       94.67255
N         39.39836       79.65524       97.31589
C         38.76837       79.37323       98.59815
C         37.74817       78.26742       98.42390
O         37.67189       77.66437       97.36224
C         39.79639       79.06255       99.70293
C         40.59682       80.28853      100.07523
C         41.53353       80.85107       99.19044
C         40.39408       80.89178      101.32916
C         42.24381       82.00068       99.55226
C         41.09912       82.04264      101.68492
C         42.02568       82.60317      100.79607
O         42.70791       83.71814      101.12569
H         40.06225       78.96403       96.93138
H         38.16784       80.25014       98.92766
H         40.46494       78.22167       99.41603
H         39.23107       78.73106      100.60008
H         41.72019       80.40378       98.22347
H         39.67695       80.48124      102.02951
H         42.96182       82.42633       98.86278
H         40.91966       82.49896      102.65024
H         42.57542       84.16924      101.97194
N         36.84053       78.04516       99.41367
C         35.66885       77.19177       99.26225
C         34.45038       78.10422       99.33408
O         33.69279       78.16465       98.37569
C         35.63200       76.08475      100.35140
C         36.95634       75.28166      100.44583
C         34.43379       75.14050      100.13018
C         37.33544       74.48658       99.19328
H         36.93518       78.58459      100.28669
H         35.67500       76.69307       98.26680
H         35.50360       76.57393      101.34153
H         36.87862       74.56935      101.29600
H         37.78814       75.98030      100.68087
H         34.39224       74.37589      100.93383
H         33.47807       75.69604      100.14167
H         34.49904       74.62996       99.14711
H         38.29730       73.96246       99.37548
H         36.57212       73.71726       98.95986
H         37.46754       75.15383       98.31907
N         34.24735       78.89997      100.42878
C         33.18324       79.89849      100.50954
C         31.79429       79.29540      100.54404
O         30.84124       80.02659      100.30787
C         33.36829       80.77577      101.75793
O         33.27518       79.98303      102.91347
H         34.92075       78.84509      101.20641
H         33.26984       80.54899       99.61018
H         32.58875       81.56812      101.79016
H         34.37065       81.25924      101.69863
H         33.75028       80.47064      103.63457
N         31.59375       77.98677      100.86711
C         30.29143       77.34458      100.91740
C         29.62475       77.42022       99.55903
O         28.49296       77.86793       99.46021
C         29.42584       77.93631      102.04532
H         32.40563       77.39843      101.09545
H         30.44830       76.26945      101.15687
H         28.46214       77.38848      102.11582
H         29.95420       77.84016      103.01729
H         29.20130       79.00903      101.87189
N         30.29965       76.98074       98.45573
C         29.71137       76.99572       97.11829
C         30.59742       76.31296       96.08690
O         31.75336       76.01426       96.34310
C         29.41557       78.42765       96.64421
H         31.24273       76.59278       98.59617
H         28.76704       76.40978       97.17283
H         28.94256       78.41528       95.63965
H         28.71650       78.95378       97.32228
H         30.35858       79.01204       96.58787
N         30.04036       75.96954       94.89063
C         30.70109       75.19442       93.84978
C         31.28785       73.92010       94.43267
O         32.45533       73.62315       94.21264
C         31.70974       76.03476       93.02189
C         31.03631       77.28838       92.43296
C         31.77696       77.86633       91.25026
O         31.22085       77.88296       90.16351
O         33.02152       78.37624       91.33528
H         29.04240       76.18107       94.74342
H         29.90638       74.88009       93.13510
H         32.04468       75.38194       92.18507
H         32.60130       76.33093       93.61454
H         30.89196       78.05168       93.22741
H         30.03009       76.99798       92.05949
N         30.52007       73.13119       95.23425
C         31.03014       71.93040       95.85719
H         31.91569       72.17373       96.48314
H         30.25057       71.48439       96.51133
H         31.31339       71.19118       95.07954
H         29.54687       73.40827       95.43696
Ca        34.32837       78.62189       93.14502
O         36.27637       78.78292       95.23649
H         36.27243       79.70833       95.58603
H         35.54317       78.33081       95.72598
O         34.22189       81.06941       90.49090
H         33.58427       81.57792       91.05272
H         34.78154       81.76249       90.05868
O         35.49286       78.18135       89.71125
H         35.41928       77.25726       90.06001
H         36.41572       78.24237       89.35817
O         32.21961       80.14922       94.31633
H         32.70608       80.03630       95.17148
H         32.14933       81.12840       94.19178
O         35.63005       76.06900       93.61781
H         34.97517       76.10912       94.35971
H         35.17824       75.53631       92.91622

Ca 1.0



