%chk=apoCaM-CA-Ng.loop4.water2.frame446.chk
%nprocshared=20
%mem=10GB
%nosave
#b3lyp/svp scf=(tight,noincore,xqc) Test 
#IOP(5/87=12) Density=Current Pop=(MK,readradii) iop(6/33=2) iop(6/42=6)

apoCaM-CA-Ng.loop4.water2.frame446 

   -3  1 
C         71.43080       56.93328       72.55092
C         70.50242       55.76460       72.68802
O         70.93293       54.74127       73.19684
H         72.29369       56.65146       71.91235
H         70.91972       57.80778       72.09759
H         71.80229       57.22307       73.55686
N         69.20002       55.85838       72.28664
C         68.21112       54.79419       72.42821
C         68.07272       54.39343       73.88819
O         68.29869       53.24806       74.23537
C         68.40823       53.65454       71.38922
C         69.72783       52.93419       71.38715
O         70.11303       52.19956       72.44335
O         70.44320       52.97922       70.39854
H         68.86877       56.75586       71.90152
H         67.21694       55.21298       72.15106
H         68.27631       54.11373       70.38347
H         67.59649       52.90493       71.51437
N         67.67486       55.34789       74.78393
C         67.42192       55.20297       76.22103
C         66.21436       54.30789       76.48926
O         65.17086       54.84124       76.84060
C         68.69359       54.82762       77.03425
C         68.42856       54.77829       78.56669
C         69.84428       55.80117       76.71538
C         68.00505       56.10960       79.20190
H         67.51605       56.29470       74.40417
H         67.12424       56.22102       76.55735
H         69.02626       53.81256       76.73147
H         69.35381       54.43442       79.07918
H         67.63887       54.02874       78.77976
H         69.55821       56.85148       76.92769
H         70.73911       55.56073       77.31870
H         70.12840       55.73303       75.64605
H         68.79341       56.88031       79.08067
H         67.05508       56.48392       78.77103
H         67.84187       55.96138       80.28963
N         66.26025       52.95531       76.32448
C         65.08030       52.10299       76.42762
C         64.46780       52.11701       77.84150
O         63.34334       52.58858       77.93549
C         65.36799       50.69880       75.85068
C         65.77909       50.76255       74.40223
O         65.02447       51.22959       73.56441
O         66.98410       50.29570       74.02246
H         67.14823       52.51781       76.06215
H         64.30882       52.52747       75.74356
H         64.45763       50.06707       75.92852
H         66.19600       50.21706       76.38327
N         65.07701       51.70028       79.00001
C         66.39007       51.09255       79.11170
C         66.35684       49.62532       78.72585
O         65.26850       49.11294       78.49854
H         64.57099       51.85772       79.88598
H         66.71861       51.11952       80.17059
H         67.08716       51.70754       78.52433
N         67.47448       48.84939       78.58344
C         68.86517       49.25433       78.81399
C         69.25048       50.51302       78.05342
O         68.69683       50.73254       76.98836
C         69.82955       48.11152       78.39286
C         69.78055       47.80269       76.90896
O         70.78158       47.94053       76.22422
O         68.64584       47.36526       76.32886
H         67.30568       47.87626       78.28625
H         68.97660       49.43193       79.90031
H         69.58690       47.18742       78.95803
H         70.87023       48.39600       78.65214
N         70.21729       51.38257       78.47519
C         71.00873       51.26165       79.69198
C         70.21963       51.52221       80.94959
O         69.03367       51.80781       80.87599
H         70.43294       52.18185       77.86419
H         71.80605       52.03383       79.67279
H         71.50241       50.27153       79.73150
N         70.85162       51.47561       82.15867
C         70.17609       51.75481       83.42231
C         70.64559       53.06682       84.05055
O         69.98250       53.52107       84.97326
C         70.21681       50.52279       84.35608
C         71.60958       49.97196       84.71227
C         72.44436       50.94065       85.49243
N         72.01681       51.41507       86.68343
O         73.52691       51.28938       85.05222
H         71.85872       51.25521       82.17384
H         69.09661       51.93518       83.22338
H         69.67674       49.69947       83.83914
H         69.64888       50.74834       85.28402
H         72.14378       49.66456       83.78763
H         71.47902       49.06045       85.33385
H         71.11309       51.12256       87.07989
H         72.59124       52.07831       87.21374
N         71.69390       53.78638       83.54229
C         71.94437       55.19009       83.88020
C         73.30295       55.47482       84.51596
O         73.52646       56.63154       84.84471
C         71.76922       56.06611       82.59612
C         70.30838       56.07554       82.12871
C         72.68239       55.62664       81.43030
H         72.27877       53.36557       82.81072
H         71.20346       55.54422       84.63115
H         72.02582       57.11814       82.85101
H         69.65440       56.46740       82.93668
H         70.19803       56.74293       81.24760
H         69.96671       55.05627       81.84999
H         72.58244       56.33225       80.57894
H         73.74666       55.60932       81.74441
H         72.40497       54.62275       81.04403
N         74.25339       54.52012       84.72646
C         75.56516       54.83138       85.30101
C         76.69569       54.54428       84.32675
O         77.83140       54.81445       84.70180
C         75.81177       54.01567       86.59384
C         74.89868       54.37299       87.73767
N         74.88385       55.62357       88.25325
O         74.19801       53.51060       88.24023
H         74.06086       53.55105       84.45305
H         75.64791       55.91119       85.54753
H         76.84577       54.20290       86.95836
H         75.72521       52.93143       86.36227
H         75.48788       56.36328       87.86859
H         74.27554       55.84797       89.05490
N         76.50595       54.00681       83.08379
C         77.63633       53.63031       82.22930
C         77.22929       53.18731       80.83164
O         76.05420       52.97018       80.58321
C         78.44424       52.48826       82.91972
C         77.54527       51.35092       83.38494
C         77.35547       51.13404       84.76235
C         76.87304       50.51689       82.47317
C         76.50162       50.12373       85.21421
C         76.02187       49.50450       82.92646
C         75.82851       49.30699       84.29601
O         74.99245       48.33629       84.71673
H         75.54648       53.83419       82.75056
H         78.27607       54.52893       82.08075
H         78.95399       52.91599       83.80508
H         79.25922       52.10247       82.27265
H         77.85423       51.75960       85.49185
H         76.99870       50.64182       81.41120
H         76.35793       49.98297       86.27810
H         75.50692       48.87618       82.21035
H         74.81900       48.17766       85.65567
N         78.20972       52.98837       79.89494
C         78.08279       52.45224       78.53625
C         77.40388       53.38095       77.53287
O         78.05402       53.75459       76.56534
C         77.45481       51.03863       78.54973
C         77.47264       50.33239       77.17785
C         78.84944       49.99007       76.65858
O         78.95681       49.44166       75.57390
O         79.96207       50.24317       77.37575
H         79.17820       53.18388       80.19528
H         79.12326       52.34142       78.16687
H         76.39808       51.11420       78.88127
H         77.99850       50.39820       79.27746
H         76.94386       50.96353       76.43224
H         76.91237       49.37763       77.27168
N         76.10112       53.75141       77.65266
C         75.38132       54.53658       76.65728
C         76.09246       55.84255       76.37018
O         76.42926       56.08555       75.21864
C         73.92478       54.80016       77.11474
C         73.08473       53.53338       77.39222
C         72.90586       52.65886       76.18434
O         73.85431       52.05992       75.70431
O         71.68313       52.50166       75.64660
H         75.58070       53.43377       78.46611
H         75.35045       53.96636       75.70517
H         73.40301       55.39748       76.33438
H         73.94086       55.40306       78.04942
H         72.08876       53.86845       77.73640
H         73.50448       52.92452       78.21707
N         76.38698       56.71972       77.36590
C         77.10163       57.94987       77.10228
H         78.08868       57.72227       76.64351
H         76.51423       58.58905       76.40926
H         77.27050       58.50306       78.04925
H         76.12070       56.49959       78.33719
Ca        69.98240       50.39702       74.59394
O         69.18324       48.56018       72.51189
H         68.91948       47.85889       73.15947
H         69.82523       48.11350       71.90546
O         72.51378       49.87077       73.20206
H         73.27127       49.26853       73.40899
H         72.74617       50.72409       73.64648

Ca 1.0



