%chk=apoCaM-CA-Ng.loop1.water1.frame807.chk
%nprocshared=20
%mem=10GB
%nosave
#b3lyp/svp scf=(tight,noincore,xqc) Test 
#IOP(5/87=12) Density=Current Pop=(MK,readradii) iop(6/33=2) iop(6/42=6)

apoCaM-CA-Ng.loop1.water1.frame807 

   0  1 
C         33.72900       92.49721       64.21581
C         33.59762       93.94521       63.85587
O         34.51359       94.70899       64.12752
H         34.70177       92.30496       64.71765
H         32.91041       92.21419       64.91117
H         33.66553       91.87650       63.29905
N         32.45660       94.39850       63.26261
C         32.22869       95.80702       62.95051
C         31.17535       96.38647       63.87840
O         30.57068       95.65261       64.64749
C         31.96597       96.03302       61.44313
C         30.77904       95.32156       60.84653
O         29.99066       94.52001       61.58140
O         30.53708       95.46231       59.65862
H         31.70422       93.71811       63.08413
H         33.14892       96.38555       63.18531
H         32.86778       95.69573       60.88728
H         31.84415       97.12220       61.25995
N         31.03391       97.73798       63.96929
C         30.35115       98.37235       65.09662
C         28.83364       98.27696       65.07303
O         28.23261       98.65107       66.07118
C         30.93361       99.79010       65.32752
C         30.75249      100.82706       64.19704
C         29.69189      101.88830       64.51243
C         29.69227      102.98644       63.43381
N         28.84955      104.11480       63.82455
H         31.62318       98.31679       63.35201
H         30.66603       97.81438       66.00867
H         32.03024       99.61334       65.41284
H         30.63335      100.21627       66.30986
H         30.59217      100.34738       63.20819
H         31.70970      101.39198       64.13383
H         29.96269      102.35996       65.48396
H         28.68517      101.43183       64.60113
H         29.33492      102.55992       62.47069
H         30.72763      103.36745       63.28303
H         28.85986      104.83212       63.06373
H         27.86994      103.79485       63.97863
H         29.22274      104.55235       64.69923
N         28.13542       97.76722       64.01378
C         26.68129       97.61504       64.05184
C         26.18787       96.43992       64.98249
O         27.22379       95.55200       65.31406
C         26.03079       97.67092       62.62894
C         26.32896       96.73152       61.46008
O         25.78909       96.98433       60.39494
O         27.15215       95.66559       61.49623
H         28.63685       97.50878       63.15171
H         26.27740       98.55801       64.48273
H         26.29347       98.67838       62.23479
H         24.92850       97.65714       62.77460
N         25.61924       96.88968       66.25793
C         24.43083       97.74838       66.20236
C         24.74159       98.95696       67.04186
O         25.11429       98.78805       68.19484
H         25.38338       96.04464       66.83190
H         23.55401       97.21882       66.64006
H         24.15272       98.02749       65.16246
N         24.63876      100.21045       66.52437
C         25.05813      101.41061       67.24264
C         23.86176      102.25742       67.60651
O         23.02393      102.51732       66.75284
C         26.09416      102.21332       66.43192
C         25.56753      102.79805       65.14712
O         25.51227      104.13539       64.99751
O         25.21009      102.07726       64.22996
H         24.25199      100.31142       65.57536
H         25.57737      101.13327       68.18679
H         26.97161      101.56875       66.21465
H         26.44442      103.05051       67.07494
N         23.72193      102.73493       68.87758
C         22.55072      103.47941       69.30119
C         21.33728      102.58373       69.45094
O         20.25995      103.09985       69.70557
H         24.46956      102.57041       69.56930
H         22.36152      104.30384       68.58081
H         22.73699      103.93150       70.29965
N         21.45605      101.22568       69.38484
C         20.36151      100.29186       69.59826
C         20.26705       99.32285       68.43085
O         21.06419       99.39908       67.50685
C         20.58163       99.54896       70.94450
C         21.94013       98.83683       71.04666
O         20.47964      100.47865       71.99322
H         22.38089      100.80575       69.22843
H         19.38758      100.82526       69.66529
H         19.77698       98.78560       71.05070
H         20.03663      100.01988       72.75442
H         21.99003       98.26756       71.99812
H         22.09846       98.13716       70.20405
H         22.77502       99.56715       71.04953
N         19.30116       98.36133       68.43263
C         19.17133       97.34686       67.39502
C         17.79581       97.49116       66.78392
O         17.69102       97.71105       65.58341
C         19.39050       95.92074       67.99708
C         20.69153       95.88255       68.83767
C         19.41694       94.87063       66.87004
C         20.95735       94.55016       69.53653
H         18.64004       98.32937       69.22044
H         19.94205       97.49840       66.60642
H         18.55505       95.67687       68.68801
H         20.58700       96.62342       69.65293
H         21.56885       96.15536       68.21194
H         19.51001       93.84490       67.27975
H         18.47524       94.89797       66.28394
H         20.27090       95.06055       66.18424
H         21.15678       93.74178       68.80618
H         21.85587       94.65344       70.18193
H         20.09406       94.27354       70.17875
N         16.69048       97.37631       67.57242
C         15.32083       97.51463       67.09148
C         14.33156       96.88381       68.06257
O         14.70328       96.50709       69.16953
C         14.94521       99.01018       66.85518
C         15.01102       99.85031       68.15022
O         15.73372       99.58514       65.84213
H         16.84347       97.14052       68.56363
H         15.22603       96.92903       66.14956
H         13.89337       99.06120       66.50108
H         16.57287       99.92739       66.24782
H         16.04096       99.85531       68.56774
H         14.71184      100.89833       67.93626
H         14.31998       99.44815       68.92072
N         13.03898       96.70558       67.68602
C         12.03432       96.10937       68.55025
C         11.64504       94.74631       68.00756
O         11.76959       93.76914       68.73090
C         10.83177       97.07898       68.70684
C          9.79272       96.54469       69.69997
O         10.22075       97.31842       67.46451
H         12.76118       96.98109       66.73009
H         12.44526       95.95059       69.57372
H         11.23494       98.03876       69.10763
H          9.66813       98.13729       67.56207
H          8.96682       97.27923       69.81227
H          9.36301       95.58380       69.34662
H         10.25923       96.39208       70.69633
N         11.13680       94.61607       66.74978
C         10.60151       93.36787       66.22307
C         11.17744       93.06671       64.84985
O         11.13257       93.93084       63.98484
C          9.06005       93.47693       66.19465
C          8.50809       94.51563       65.20388
C          7.00908       94.74332       65.40796
C          6.39867       95.64830       64.32328
N          7.04757       96.95940       64.24084
H         11.04897       95.45818       66.16756
H         10.81928       92.52186       66.91171
H          8.73719       93.74204       67.22667
H          8.61952       92.48632       65.94648
H          8.68660       94.15649       64.16857
H          9.01655       95.48742       65.35082
H          6.84887       95.19631       66.41176
H          6.47589       93.76860       65.37544
H          5.32104       95.78720       64.55975
H          6.47159       95.14163       63.33560
H          6.52480       97.55163       63.55627
H          7.04380       97.43069       65.17400
H          8.02754       96.86380       63.88967
N         11.67908       91.83392       64.55264
C         12.10510       91.48786       63.20136
C         13.30986       92.31772       62.75953
O         13.18165       92.99390       61.74867
C         12.30487       89.96310       63.04359
C         12.52608       89.56887       61.57363
C         12.62465       88.07825       61.42474
O         13.61289       87.40062       62.03902
O         11.81438       87.47435       60.73950
H         11.67641       91.10377       65.28118
H         11.25211       91.72312       62.52236
H         11.37390       89.46106       63.39006
H         13.13123       89.58428       63.66860
H         13.45832       90.02981       61.18444
H         11.67022       89.93929       60.96532
N         14.50104       92.37584       63.42642
C         14.80366       91.68874       64.66370
H         15.82895       91.95862       64.99552
H         14.09854       91.99558       65.46227
H         14.79062       90.59402       64.52681
H         15.24177       92.98164       63.03923
Ca        27.91997       94.84725       63.36781
O         29.44844       93.19804       65.90942
H         30.14992       92.54530       66.15822
H         29.60086       93.96753       66.51388

Ca 1.0



