%chk=apoCaM-CA-Ng.loop1.water5.frame361.chk
%nprocshared=20
%mem=10GB
%nosave
#b3lyp/svp scf=(tight,noincore,xqc) Test 
#IOP(5/87=12) Density=Current Pop=(MK,readradii) iop(6/33=2) iop(6/42=6)

apoCaM-CA-Ng.loop1.water5.frame361 

   0  1 
C         53.38706      100.61335       26.04091
C         54.32886      101.05530       24.95941
O         55.49462      101.28142       25.24967
H         52.36656      100.43267       25.64159
H         53.75870       99.67123       26.49526
H         53.32550      101.39766       26.82385
N         53.88545      101.20642       23.68050
C         54.73582      101.62523       22.57407
C         54.28209      102.96622       22.01008
O         54.84361      103.38970       21.01651
C         54.71627      100.55112       21.46368
C         55.24046       99.22179       21.93774
O         56.23553       98.73725       21.42225
O         54.60367       98.54458       22.91226
H         52.89206      101.01778       23.47253
H         55.79064      101.74753       22.90064
H         55.35703      100.89462       20.62118
H         53.68291      100.41662       21.07705
N         53.30170      103.71609       22.58704
C         52.82995      104.97205       22.01408
C         53.18427      106.13919       22.91309
O         52.95188      106.01636       24.10787
C         51.31733      104.87914       21.74183
C         51.06218      103.88768       20.58423
C         49.64342      103.93215       19.99847
C         49.32115      105.29412       19.34958
N         48.05893      105.24780       18.61600
H         52.85827      103.40089       23.46197
H         53.29761      105.15679       21.04725
H         50.97716      105.88682       21.44962
H         50.74358      104.59668       22.65135
H         51.28986      102.85736       20.93466
H         51.75384      104.11168       19.74125
H         48.88834      103.68036       20.77298
H         49.60356      103.15497       19.20359
H         50.13101      105.56872       18.63703
H         49.25451      106.08520       20.12590
H         48.13118      104.56165       17.82970
H         47.27704      104.97887       19.25514
H         47.86528      106.19470       18.21583
N         53.71678      107.33239       22.47332
C         53.94821      107.81620       21.09901
C         52.65627      107.83848       20.28120
O         52.31454      106.82450       19.69505
C         55.10016      107.13532       20.31171
C         56.47811      107.39565       20.84357
O         56.67555      108.18734       21.90847
O         57.44244      106.92342       20.26417
H         53.90441      108.03214       23.20929
H         54.28209      108.86867       21.19657
H         55.09548      107.56100       19.28771
H         54.96528      106.04675       20.21754
N         51.87970      108.95144       20.13557
C         52.20625      110.24873       20.70870
C         51.16693      111.31919       20.40645
O         50.13685      111.01486       19.82214
H         51.02444      108.84933       19.56827
H         53.16790      110.57941       20.26003
H         52.31016      110.15794       21.81203
N         51.36392      112.63083       20.72985
C         52.56232      113.15302       21.37977
C         53.40029      113.92084       20.37880
O         52.99164      114.07972       19.23494
C         52.18614      113.98153       22.62577
C         51.29670      115.15607       22.31513
O         51.68341      116.05081       21.58032
O         50.06792      115.22980       22.86145
H         50.64279      113.30950       20.43754
H         53.21196      112.32607       21.72861
H         53.10408      114.35225       23.12944
H         51.65974      113.31216       23.34019
N         54.64170      114.36083       20.72821
C         55.55208      114.97788       19.78165
C         56.04483      114.01897       18.70966
O         56.80158      114.46925       17.86207
H         54.96872      114.23651       21.69774
H         56.44879      115.34371       20.32650
H         55.05415      115.85405       19.31113
N         55.67521      112.69985       18.66977
C         56.12357      111.77466       17.63612
C         54.94043      111.36258       16.77521
O         53.79941      111.59945       17.14635
C         56.79752      110.54075       18.29402
C         58.01158      110.93971       19.13707
O         57.21351      109.62856       17.31199
H         55.04278      112.31308       19.38140
H         56.84965      112.27815       16.96145
H         56.04074      110.05800       18.95947
H         57.24386      108.73367       17.74248
H         58.45111      110.03624       19.61166
H         58.78325      111.41781       18.49713
H         57.71778      111.64404       19.94216
N         55.16693      110.78526       15.56282
C         54.10877      110.36231       14.64740
C         54.18338      108.86897       14.35315
O         53.28036      108.37483       13.68844
C         54.12532      111.22394       13.34608
C         55.52519      111.24678       12.67185
C         53.62761      112.64502       13.67052
C         55.55465      111.96761       11.32293
H         56.14504      110.66392       15.26540
H         53.11269      110.49753       15.12414
H         53.38989      110.78380       12.63580
H         55.86323      110.20284       12.50089
H         56.26172      111.75158       13.33303
H         53.52403      113.25761       12.75313
H         52.61624      112.59466       14.12911
H         54.31328      113.15819       14.37674
H         55.29204      113.03984       11.42654
H         56.58334      111.92045       10.90637
H         54.85801      111.48088       10.60956
N         55.18645      108.07667       14.83142
C         55.21598      106.62682       14.67560
C         55.28650      105.96500       16.03752
O         55.56782      106.63766       17.02132
C         56.42656      106.18603       13.80581
C         57.78931      106.65303       14.35443
O         56.27050      106.61939       12.47817
H         55.95816      108.49788       15.36246
H         54.28419      106.27150       14.18299
H         56.44098      105.07443       13.78342
H         56.20648      107.60933       12.48537
H         58.60919      106.24657       13.72628
H         57.86908      107.76009       14.34445
H         57.94485      106.30131       15.39378
N         55.05353      104.63045       16.17273
C         55.24677      103.94037       17.44630
C         56.74130      103.86669       17.76073
O         57.54224      104.31926       16.95502
C         54.55552      102.55113       17.45516
C         55.14856      101.53960       16.46955
O         53.18766      102.72769       17.17876
H         54.73759      104.10331       15.34497
H         54.73639      104.52561       18.24440
H         54.67134      102.12880       18.48016
H         52.68637      102.05093       17.70521
H         54.60796      100.57404       16.57050
H         55.04600      101.88166       15.42054
H         56.22029      101.36086       16.69419
N         57.19204      103.30159       18.91381
C         58.59906      103.21613       19.26979
C         58.85585      103.94727       20.57783
O         59.66493      104.86472       20.58306
C         59.00398      101.72774       19.33115
C         60.48315      101.46962       19.67317
C         61.45709      102.13098       18.68505
C         62.90904      101.75237       18.99844
N         63.83149      102.43751       18.09305
H         56.51897      102.88484       19.55850
H         59.21693      103.69699       18.48356
H         58.79172      101.27248       18.33798
H         58.37589      101.19771       20.08039
H         60.63970      100.36849       19.65190
H         60.69966      101.82852       20.70258
H         61.36464      103.23469       18.75495
H         61.21493      101.81111       17.64775
H         63.03485      100.65170       18.89198
H         63.15146      102.03553       20.04673
H         64.81080      102.14933       18.31831
H         63.62160      102.18334       17.10044
H         63.74881      103.47327       18.21582
N         58.22103      103.58183       21.72903
C         58.49180      104.18354       23.03120
C         59.07426      103.11241       23.92856
O         58.41335      102.11492       24.18636
C         57.20493      104.81006       23.63542
C         57.36534      105.26118       25.10683
C         58.49598      106.23189       25.32227
O         59.50503      105.86232       25.90119
O         58.39396      107.52161       24.95030
H         57.54601      102.80430       21.69297
H         59.23696      105.00329       22.93818
H         56.38626      104.06046       23.61857
H         56.89040      105.66622       23.00432
H         57.56117      104.35060       25.71260
H         56.41966      105.70159       25.48963
N         60.32393      103.26361       24.44658
C         60.92302      102.27974       25.31865
H         61.93722      102.61578       25.62319
H         60.30169      102.15441       26.23068
H         61.01234      101.30831       24.78870
H         60.87186      104.10791       24.22117
Ca        56.40371      108.51171       24.55667
O         57.19378      109.61507       27.29354
H         57.88501      108.90656       27.31588
H         57.58862      110.36350       27.80710
O         57.52212      112.58474       25.34755
H         57.54160      113.42450       25.87185
H         56.75864      112.69731       24.72693
O         59.75051      108.80507       22.28354
H         60.20272      108.94238       21.41355
H         59.41441      107.87464       22.24426
O         58.77285      111.90179       22.52222
H         59.53335      111.79575       21.89706
H         58.64822      112.88130       22.59665
O         60.27046      109.98144       25.32777
H         60.23724      109.29537       26.04097
H         61.17814      109.89289       24.94219

Ca 1.0



