%chk=apoCaM-CA-Ng.loop4.water5.frame544.chk
%nprocshared=20
%mem=10GB
%nosave
#b3lyp/svp scf=(tight,noincore,xqc) Test 
#IOP(5/87=12) Density=Current Pop=(MK,readradii) iop(6/33=2) iop(6/42=6)

apoCaM-CA-Ng.loop4.water5.frame544 

   -3  1 
C         56.42460        6.74788       63.27915
C         54.99302        6.44349       62.96224
O         54.43731        5.52951       63.55328
H         57.04196        6.64965       62.36286
H         56.50012        7.78548       63.66778
H         56.81211        6.05085       64.05329
N         54.32021        7.19888       62.03942
C         52.91091        7.02009       61.67064
C         51.97053        7.34835       62.82803
O         50.76488        7.22953       62.65555
C         52.63452        5.59851       61.12505
C         53.61727        5.18551       60.06469
O         54.92218        5.20848       60.38078
O         53.24578        4.76045       58.98308
H         54.83914        7.94912       61.55772
H         52.67923        7.73673       60.85140
H         51.59445        5.52766       60.73675
H         52.72327        4.86417       61.95187
N         52.44797        7.78915       64.03078
C         51.60827        8.13225       65.17184
C         50.66820        9.26965       64.79721
O         50.94638        9.96666       63.83026
C         52.50118        8.45564       66.42848
C         53.44951        9.67252       66.19337
C         53.26630        7.18114       66.84760
C         54.36431        9.98731       67.37931
H         53.45401        7.89775       64.14791
H         50.98589        7.24362       65.40075
H         51.86054        8.71878       67.28944
H         52.82683       10.57028       65.99236
H         54.11478        9.52381       65.32058
H         53.99574        6.85980       66.07678
H         53.80879        7.33269       67.80215
H         52.55007        6.35038       67.02088
H         53.77087       10.16716       68.29887
H         55.08426        9.16032       67.55410
H         54.96326       10.89471       67.15178
N         49.50776        9.52651       65.46131
C         48.97739        8.75056       66.57641
C         48.23194        7.53270       66.06189
O         48.52037        6.42452       66.49226
C         48.05372        9.62760       67.44690
C         48.76201       10.86339       67.95060
O         49.14353       11.72228       67.17033
O         48.96236       11.03833       69.26977
H         48.92970       10.30539       65.10642
H         49.78256        8.42786       67.25872
H         47.72632        9.02174       68.32109
H         47.15002        9.94008       66.88202
N         47.26492        7.67485       65.11233
C         46.47424        6.57683       64.58509
C         45.48552        6.08879       65.61370
O         44.72893        6.90015       66.12949
H         47.08857        8.61200       64.72084
H         47.13446        5.76666       64.20204
H         45.87756        6.95561       63.72790
N         45.39680        4.76730       65.93315
C         44.41842        4.25409       66.89217
C         44.70603        4.65054       68.34337
O         43.93112        4.25460       69.20399
C         44.24204        2.71913       66.75031
C         45.46795        1.86730       66.95968
O         45.36320        0.65288       66.89861
O         46.68073        2.40955       67.17002
H         45.99674        4.10394       65.42014
H         43.42103        4.67379       66.62902
H         43.86081        2.50339       65.72847
H         43.45841        2.39088       67.46888
N         45.76318        5.43773       68.70789
C         46.02524        5.79947       70.09459
C         46.58346        4.65026       70.91452
O         46.82622        4.84458       72.09683
H         46.39775        5.82234       67.99776
H         45.10066        6.21234       70.55207
H         46.79877        6.59872       70.11679
N         46.89542        3.45524       70.33628
C         47.59405        2.35955       70.98839
C         48.95468        2.81980       71.47711
O         49.36380        2.49068       72.58070
C         46.71691        1.64975       72.04110
C         45.52343        0.95563       71.35517
C         44.63588        0.18718       72.30179
N         43.60186       -0.53336       71.80852
O         44.84395        0.19925       73.50643
H         46.72087        3.32656       69.33781
H         47.82851        1.60452       70.20347
H         46.37001        2.37175       72.81127
H         47.31923        0.86050       72.54245
H         45.92462        0.23067       70.61268
H         44.90234        1.70373       70.81727
H         43.42108       -0.56467       70.79389
H         42.98770       -1.07117       72.43765
N         49.71908        3.58454       70.64530
C         51.09918        3.97242       70.91100
C         52.02246        3.54147       69.77298
O         53.22501        3.72788       69.91763
C         51.21554        5.50254       71.15866
C         50.64497        6.34308       70.00214
C         50.53931        5.89087       72.47939
H         49.29297        3.90841       69.76609
H         51.47143        3.45273       71.82170
H         52.29442        5.75349       71.26963
H         50.81535        7.42309       70.19679
H         51.14094        6.08253       69.04501
H         49.55071        6.18670       69.89372
H         50.99850        5.32606       73.31974
H         50.68401        6.97389       72.67927
H         49.45222        5.67180       72.45293
N         51.56410        2.97276       68.61600
C         52.45886        2.55234       67.54371
C         53.34861        1.40517       67.99785
O         53.18592        0.88517       69.09217
C         51.64346        2.11729       66.29719
C         50.91466        3.27208       65.65717
N         51.60720        4.29389       65.10152
O         49.69387        3.27050       65.60891
H         50.55576        2.83650       68.46631
H         53.11333        3.40733       67.26484
H         50.92405        1.32125       66.59366
H         52.30294        1.69523       65.51110
H         52.63722        4.30121       65.11305
H         51.11363        5.06870       64.63752
N         54.31939        0.95823       67.15825
C         55.20581       -0.16655       67.43369
C         56.65640        0.30097       67.35664
O         56.88476        1.48959       67.17997
C         54.85661       -1.26537       66.40568
C         53.44228       -1.75776       66.64926
C         52.40171       -1.45834       65.75194
C         53.15206       -2.50905       67.80235
C         51.09578       -1.89333       66.01248
C         51.85067       -2.95277       68.05362
C         50.81740       -2.64400       67.16464
O         49.56564       -3.07124       67.42941
H         54.42348        1.42066       66.24194
H         55.05209       -0.57597       68.45544
H         55.54193       -2.13583       66.46625
H         54.95387       -0.83141       65.38542
H         52.59386       -0.87252       64.86230
H         53.93666       -2.75554       68.50648
H         50.30021       -1.64407       65.32130
H         51.64482       -3.53425       68.94390
H         48.81845       -2.87655       66.84592
N         57.69522       -0.58127       67.47735
C         59.09565       -0.16550       67.40107
C         59.67885       -0.59820       66.06403
O         59.71193       -1.79322       65.80828
C         59.93609       -0.75882       68.54516
C         59.53354       -0.21382       69.91997
C         60.46384       -0.72808       70.98224
O         59.98478       -1.45586       72.00808
O         61.65835       -0.47799       70.92684
H         57.48956       -1.58659       67.56922
H         59.17645        0.92576       67.52118
H         60.99660       -0.47254       68.36256
H         59.86889       -1.86975       68.53855
H         58.48901       -0.51223       70.15249
H         59.59419        0.89640       69.91481
N         60.16028        0.28558       65.13494
C         60.13932        1.74108       65.27900
C         61.36671        2.23540       66.02339
O         62.25572        1.44782       66.32153
C         60.03544        2.42794       63.90486
C         58.79901        1.94066       63.13397
C         58.53900        2.72001       61.88143
O         59.19583        3.70876       61.59380
O         57.50552        2.35664       61.10496
H         60.52641       -0.10653       64.25264
H         59.21943        2.05773       65.80841
H         60.94675        2.23572       63.29719
H         59.94428        3.52401       64.06908
H         57.89435        2.04411       63.77383
H         58.92189        0.87081       62.86810
N         61.48345        3.55202       66.35072
C         62.65433        4.08471       67.01228
H         63.54801        3.94107       66.36779
H         62.52294        5.17297       67.19369
H         62.81128        3.57586       67.98643
H         60.71796        4.20400       66.12292
Ca        56.57883        3.87155       59.74482
O         59.73400        5.42642       59.10993
H         60.48986        4.87297       59.43079
H         60.14757        6.29202       58.86543
O         58.84812        2.20998       58.58806
H         58.72433        1.23661       58.71964
H         59.74211        2.29826       58.17358
O         56.33915        6.63602       58.00440
H         56.05902        7.48215       58.43494
H         55.49053        6.18402       57.76750
O         54.86968        2.23077       58.13771
H         54.92070        2.86671       57.38028
H         55.53255        1.52879       57.91898
O         57.99494        4.44670       56.56216
H         57.84105        3.49098       56.35517
H         57.33872        4.92930       55.99961

Ca 1.0



