%chk=apoCaM-CA-Ng.loop2.water2.frame899.chk
%nprocshared=20
%mem=10GB
%nosave
#b3lyp/svp scf=(tight,noincore,xqc) Test 
#IOP(5/87=12) Density=Current Pop=(MK,readradii) iop(6/33=2) iop(6/42=6)

apoCaM-CA-Ng.loop2.water2.frame899 

   -2  1 
C         10.43899       10.63582       45.59089
C          9.63506       10.29991       46.80939
O         10.15909        9.66636       47.71502
H         11.47377       10.24169       45.68060
H          9.95985       10.19381       44.69312
H         10.48790       11.73939       45.47466
N          8.34428       10.72295       46.90554
C          7.50242       10.47963       48.06873
C          7.19874       11.78163       48.80862
O          6.54274       11.71580       49.83754
C          6.22271        9.74857       47.60878
C          5.33657        9.33610       48.75243
O          4.18953        9.74815       48.82113
O          5.80101        8.49952       49.70047
H          7.94641       11.26628       46.12235
H          8.03418        9.82419       48.79371
H          6.51214        8.82515       47.06182
H          5.65779       10.40276       46.90786
N          7.65733       12.99810       48.36960
C          7.42849       14.23692       49.11671
C          7.85180       15.48632       48.32522
O          8.48579       15.34603       47.29017
C          8.23251       14.17369       50.43262
H          8.17394       13.04455       47.48431
H          6.33488       14.30828       49.29772
H          8.09850       15.06859       51.06249
H          7.94054       13.30421       51.05304
H          9.31605       14.08070       50.20099
N          7.53965       16.76439       48.71412
C          6.70203       17.12382       49.85602
C          5.44418       17.84499       49.39776
O          5.34983       18.24092       48.24353
C          7.49138       17.93961       50.90716
C          8.01846       19.25923       50.40954
O          8.84092       19.30286       49.50918
O          7.62624       20.40196       51.00161
H          7.88218       17.53217       48.11612
H          6.34352       16.21086       50.36309
H          8.35580       17.34322       51.26714
H          6.82915       18.12726       51.77996
N          4.38756       17.95339       50.24883
C          3.09211       18.48583       49.86097
C          2.49912       19.29415       50.98841
O          1.55028       18.81206       51.59140
H          4.46399       17.51351       51.18003
H          2.42774       17.60625       49.70625
H          3.11418       19.04761       48.90384
N          2.98152       20.50008       51.39809
C          4.02940       21.27226       50.73942
C          3.48357       21.86378       49.44301
O          2.41761       22.46401       49.48221
C          4.45619       22.42634       51.68047
C          5.65536       23.20819       51.20563
N          6.07115       24.29260       51.89586
O          6.26718       22.86275       50.21069
H          2.54406       20.90757       52.24071
H          4.92414       20.63260       50.57732
H          4.72367       22.00694       52.67466
H          3.59800       23.12033       51.81486
H          5.57235       24.59909       52.74263
H          6.88645       24.83458       51.57652
N          4.17322       21.77462       48.27064
C          3.67254       22.30053       47.00502
C          4.49873       23.44314       46.43876
O          4.21902       23.83387       45.31427
H          5.09285       21.31146       48.26826
H          2.62606       22.66566       47.09062
H          3.67034       21.46351       46.27469
N          5.49509       24.05515       47.14601
C          6.31337       25.14605       46.61532
C          7.80889       24.74704       46.66392
O          7.95546       23.40673       46.30166
C          6.06522       26.44093       47.43484
C          4.62446       26.93326       47.28830
O          6.32926       26.22175       48.79711
H          5.68448       23.75097       48.10475
H          6.05310       25.34258       45.55134
H          6.70101       27.27388       47.06012
H          7.31294       26.27046       48.91116
H          4.48799       27.86957       47.87144
H          4.40156       27.15145       46.22198
H          3.90396       26.17691       47.66395
N          8.62262       25.57936       45.76646
C         10.07639       25.35759       45.90659
C         10.61394       26.11402       47.11423
O         10.42662       27.32129       47.18532
C         10.79810       25.81086       44.60308
C         12.32364       25.52724       44.70280
C         10.18159       25.08985       43.38553
C         13.12909       26.01690       43.49838
H          8.39945       26.59735       45.83996
H         10.28491       24.26912       46.01703
H         10.64110       26.90488       44.47003
H         12.49858       24.43645       44.83493
H         12.73687       26.05252       45.58907
H          9.09536       25.30530       43.30689
H         10.63106       25.44150       42.43631
H         10.31996       23.99066       43.46977
H         14.20743       25.81833       43.67482
H         12.84233       25.48426       42.56991
H         12.98684       27.10954       43.36025
N         11.33177       25.46843       48.07869
C         11.88543       26.14282       49.24852
C         13.40667       26.14497       49.25121
O         13.96129       26.75809       50.15455
C         11.37970       25.46137       50.53384
C          9.88376       25.45315       50.61949
O          9.26186       26.50246       50.66087
O          9.22410       24.28084       50.66597
H         11.50678       24.46065       47.97566
H         11.57041       27.20989       49.26282
H         11.77765       25.98850       51.42874
H         11.74932       24.41219       50.55657
N         14.16066       25.48841       48.31499
C         15.61981       25.51884       48.34970
C         16.22167       24.54691       47.33245
O         15.94663       24.70126       46.14934
C         16.14401       26.94421       48.03521
C         17.64054       27.02621       48.22029
C         18.49135       27.22866       47.12089
C         18.19760       26.89357       49.50455
C         19.87699       27.28399       47.30464
C         19.58178       26.95408       49.68406
C         20.42147       27.14630       48.58463
H         13.69855       24.92661       47.58632
H         15.93220       25.23900       49.37521
H         15.68602       27.71260       48.69052
H         15.85744       27.20062       46.99085
H         18.08542       27.33124       46.12240
H         17.55942       26.74254       50.36647
H         20.52963       27.43137       46.45415
H         20.00265       26.84953       50.67580
H         21.49368       27.18891       48.72517
N         17.10132       23.55934       47.69450
C         17.83396       22.74080       46.73850
C         17.03316       21.56765       46.19221
O         17.60765       20.79319       45.43876
C         19.03903       22.26709       47.55976
C         18.42053       22.06113       48.92535
C         17.54835       23.30546       49.05214
H         18.21719       23.34350       45.88494
H         19.59252       21.39971       47.14074
H         19.75287       23.11865       47.65414
H         17.76042       21.16654       48.86097
H         19.13582       21.91747       49.76262
H         16.71519       23.10384       49.75925
H         18.14837       24.17469       49.39268
N         15.72262       21.35510       46.51144
C         14.97657       20.20107       46.00868
C         14.83400       20.17037       44.48894
O         14.35739       19.16384       43.98077
C         13.58309       20.11128       46.66724
C         12.65716       21.28559       46.30423
C         11.34616       21.14268       47.00993
O         10.97653       22.06545       47.91152
O         10.61747       20.18955       46.78438
H         15.26074       21.99709       47.16890
H         15.54244       19.29219       46.31369
H         13.71637       20.07738       47.77156
H         13.09732       19.15926       46.35687
H         12.47458       21.32582       45.20897
H         13.11915       22.24653       46.61231
N         15.20120       21.21610       43.69444
C         15.07086       21.15996       42.25485
H         15.68688       20.32751       41.85198
H         14.00744       21.00357       41.97493
H         15.42280       22.11210       41.80458
H         15.57454       22.08318       44.10390
Ca         8.29724       22.42062       48.32299
O          7.00157       20.36331       46.58456
H          7.11684       20.15500       47.54519
H          7.61240       19.73583       46.12441
O         11.00184       21.21306       50.69660
H         10.68878       20.97829       51.60580
H         11.84496       20.70619       50.58314

Ca 1.0



