%chk=apoCaM-CA-Ng.loop3.water3.frame506.chk
%nprocshared=20
%mem=10GB
%nosave
#b3lyp/svp scf=(tight,noincore,xqc) Test 
#IOP(5/87=12) Density=Current Pop=(MK,readradii) iop(6/33=2) iop(6/42=6)

apoCaM-CA-Ng.loop3.water3.frame506 

   0  1 
C         68.60898       39.25047       56.70676
C         68.25001       38.87855       58.11229
O         67.14475       38.41102       58.34871
H         69.49161       38.65862       56.38445
H         67.76526       39.04221       56.01563
H         68.85751       40.33124       56.65990
N         69.16062       39.05202       59.10767
C         68.89687       38.68523       60.49104
C         67.75383       39.52222       61.03986
O         67.84405       40.74273       61.02417
C         70.17410       38.87495       61.33548
C         70.08273       38.30967       62.72692
O         71.14281       38.42141       63.54874
O         69.07694       37.73620       63.11538
H         70.08593       39.43668       58.85892
H         68.64397       37.60113       60.51608
H         70.43123       39.95359       61.38526
H         71.00929       38.34652       60.83620
N         66.64003       38.91827       61.53833
C         65.49392       39.65033       62.06628
C         65.91789       40.54833       63.21477
O         65.64488       41.73974       63.16007
C         64.38867       38.65083       62.48309
C         63.07910       39.33461       62.91245
C         61.96480       38.29495       63.11391
C         60.63796       38.95964       63.50814
N         59.56765       37.96795       63.62178
H         66.60705       37.88689       61.53787
H         65.06862       40.28020       61.25159
H         64.74926       37.98187       63.29569
H         64.16442       38.02362       61.59146
H         62.75760       40.03796       62.11300
H         63.24156       39.90953       63.85020
H         62.26227       37.56832       63.90118
H         61.81595       37.74347       62.15973
H         60.35219       39.71007       62.73740
H         60.76103       39.48449       64.48114
H         59.40817       37.50624       62.69805
H         59.81340       37.24575       64.33690
H         58.68348       38.44655       63.90882
N         66.61368       40.04711       64.27524
C         67.01866       40.87117       65.41225
C         68.35042       41.58634       65.21317
O         68.66022       42.45572       66.01487
C         66.98611       40.04657       66.71948
C         67.93228       38.86053       66.78978
O         68.76877       38.54723       65.77526
O         67.93390       38.17126       67.79548
H         66.84602       39.04410       64.27146
H         66.25896       41.67628       65.53645
H         65.95027       39.66600       66.85307
H         67.20782       40.72506       67.57200
N         69.18176       41.30899       64.17104
C         70.43818       42.00625       63.94313
C         71.54043       41.74307       64.96385
O         72.60532       42.30787       64.76742
H         68.89828       40.60840       63.47622
H         70.24142       43.10019       63.88441
H         70.84161       41.69253       62.95707
N         71.39062       40.93260       66.06222
C         72.48228       40.70895       67.02093
C         72.56193       39.25870       67.48584
O         71.67118       38.48526       67.20223
C         72.34183       41.63956       68.25033
C         71.25802       41.22998       69.23010
N         69.94935       41.24517       68.89618
O         71.58036       40.87828       70.35492
H         70.48525       40.48703       66.23833
H         73.44508       40.96386       66.52657
H         72.19359       42.69027       67.92026
H         73.30841       41.60857       68.79960
H         69.64607       41.55772       67.97236
H         69.23044       40.95410       69.57470
N         73.59679       38.84634       68.27164
C         73.68379       37.52898       68.89091
C         73.69637       36.39156       67.89678
O         74.48132       36.43818       66.95948
H         74.35221       39.51478       68.47990
H         72.85231       37.39874       69.61625
H         74.63614       37.48619       69.46203
N         72.90391       35.28910       68.08786
C         72.94494       34.13101       67.19796
C         72.14199       34.38875       65.88372
O         72.29359       35.70138       65.43489
C         72.37410       32.86113       67.89164
C         73.10469       32.37461       69.12291
C         74.46898       32.03537       69.07126
C         72.39853       32.17673       70.32276
C         75.11022       31.50732       70.19834
C         73.03908       31.64036       71.44365
C         74.39737       31.30037       71.38414
O         75.02233       30.76463       72.45261
H         72.33713       35.23362       68.94725
H         74.01003       33.92792       66.94582
H         72.41871       32.00130       67.19801
H         71.30624       33.03663       68.13401
H         75.03499       32.16125       68.15757
H         71.34309       32.41005       70.38556
H         76.15895       31.24199       70.14539
H         72.47454       31.47640       72.35314
H         74.55838       30.58168       73.28250
N         72.57658       33.41869       64.85836
C         72.11190       33.56650       63.46650
C         70.59372       33.58764       63.34119
O         69.95199       34.53038       63.78140
C         72.78727       34.74401       62.68791
C         72.34335       34.71198       61.19587
C         74.32067       34.64330       62.81279
C         72.93715       35.82633       60.33436
H         72.28667       32.46224       65.15610
H         72.48324       32.65530       62.94294
H         72.46739       35.71968       63.10315
H         71.23928       34.82867       61.14677
H         72.60743       33.73392       60.73726
H         74.63034       34.67727       63.87792
H         74.68947       33.69664       62.36234
H         74.82147       35.49726       62.31402
H         72.70423       36.81693       60.77093
H         74.03532       35.71850       60.23329
H         72.50098       35.77114       59.31403
N         69.98510       32.61160       62.61143
C         68.62161       32.71776       62.11001
C         67.50933       32.41426       63.09869
O         66.37502       32.51974       62.66105
C         68.45835       31.76886       60.90344
O         68.59174       30.43497       61.31841
H         70.58338       31.86757       62.21982
H         68.48002       33.75138       61.72036
H         69.23586       32.00258       60.14292
H         67.45653       31.92586       60.44132
H         68.28452       29.87424       60.56006
N         67.69250       32.00640       64.39090
C         66.55399       31.55655       65.19803
C         66.24805       32.50745       66.34543
O         67.00323       32.51892       67.30574
C         66.79995       30.13394       65.70711
H         68.64138       31.95948       64.78789
H         65.66144       31.47508       64.56135
H         67.69346       30.10367       66.36742
H         65.91835       29.77051       66.27761
H         66.97300       29.45007       64.84896
N         65.17412       33.36193       66.34478
C         64.26234       33.55136       65.21342
C         63.36824       32.34030       64.97064
O         63.25535       31.51447       65.86611
C         63.36960       34.77838       65.45642
H         65.06460       33.97902       67.16591
H         64.89974       33.75313       64.33184
H         62.73481       34.62071       66.35546
H         63.99547       35.68053       65.61801
H         62.70524       34.97765       64.59237
N         62.69686       32.12322       63.79599
C         62.79708       32.93590       62.58398
C         63.38327       32.09127       61.46520
O         64.40252       32.47342       60.90840
C         61.41784       33.50120       62.18782
C         61.52113       34.39786       60.93794
C         60.19330       34.97882       60.55377
O         59.26086       34.24678       60.26326
O         60.03519       36.31417       60.49162
H         62.10163       31.28154       63.74549
H         63.46320       33.80659       62.73506
H         61.02351       34.10886       63.03126
H         60.70530       32.66931       61.99738
H         61.89855       33.80895       60.07491
H         62.23705       35.22598       61.13679
N         62.79051       30.93058       61.07152
C         63.35003       30.10664       60.02205
H         64.37247       29.77590       60.30630
H         62.71713       29.20759       59.86701
H         63.39797       30.68007       59.07212
H         61.92479       30.61250       61.53081
Ca        70.28010       36.80942       65.77498
O         70.02273       36.39606       68.80960
H         69.47826       35.86628       69.44380
H         70.09420       37.29075       69.22665
O         67.21559       35.81884       65.42189
H         66.43887       35.97925       66.01419
H         66.86830       35.23399       64.70298
O         69.25254       34.07795       66.68565
H         69.04014       34.14742       67.64922
H         69.57070       33.14808       66.56988

Ca 1.0



