%chk=apoCaM-CA-Ng.loop4.water3.frame214.chk
%nprocshared=20
%mem=10GB
%nosave
#b3lyp/svp scf=(tight,noincore,xqc) Test 
#IOP(5/87=12) Density=Current Pop=(MK,readradii) iop(6/33=2) iop(6/42=6)

apoCaM-CA-Ng.loop4.water3.frame214 

   -3  1 
C         40.63224       33.33665       80.57006
C         41.96975       34.01631       80.54280
O         42.94272       33.37866       80.89184
H         39.82143       34.01514       80.23385
H         40.65387       32.44906       79.90211
H         40.40975       33.00117       81.60505
N         42.09697       35.30186       80.11213
C         43.35386       36.04474       80.03344
C         44.41123       35.34727       79.19705
O         45.49469       35.06230       79.67262
C         43.75506       36.72993       81.36936
C         44.01971       36.03769       82.69201
O         44.29591       34.73334       82.87918
O         43.99497       36.74276       83.68853
H         41.24880       35.78475       79.77835
H         43.13283       36.95252       79.42342
H         42.87141       37.37216       81.59090
H         44.60080       37.42689       81.17856
N         44.14218       35.15657       77.87228
C         45.01554       34.62235       76.82658
C         46.30871       35.42366       76.70267
O         46.39513       36.24656       75.80175
C         45.24092       33.08302       76.90380
C         45.88863       32.52042       75.60223
C         43.93608       32.33911       77.21682
C         44.99030       32.55483       74.35262
H         43.21839       35.48066       77.54275
H         44.43901       34.79726       75.89292
H         45.92881       32.85534       77.74333
H         46.15855       31.45729       75.77460
H         46.82979       33.06916       75.38429
H         43.14271       32.57118       76.47838
H         44.12489       31.25132       77.20310
H         43.56573       32.61594       78.22541
H         44.07895       31.93820       74.50054
H         44.68977       33.58512       74.07868
H         45.53797       32.12334       73.48905
N         47.37060       35.20863       77.53855
C         48.61099       35.97120       77.47986
C         49.71153       35.20318       76.73643
O         50.14992       35.73792       75.72685
C         49.03196       36.45916       78.88795
C         48.03911       37.38333       79.54761
O         48.31147       37.87097       80.77303
O         46.99720       37.70128       78.99609
H         47.30989       34.46752       78.24351
H         48.44743       36.89763       76.88211
H         49.99530       37.00684       78.80394
H         49.17161       35.60922       79.57578
N         50.24082       33.98758       77.08440
C         49.85040       33.18082       78.23209
C         50.63331       31.87828       78.35778
O         51.47943       31.61137       77.51601
H         50.97790       33.62700       76.45969
H         48.78621       32.91884       78.12512
H         50.04715       33.75937       79.13767
N         50.42702       30.97051       79.36413
C         49.47018       31.05659       80.47004
C         48.04928       31.19281       79.92808
O         47.42211       32.21246       80.15801
C         49.88896       32.12994       81.50046
C         49.16129       31.95736       82.80922
O         49.85553       31.67834       83.92905
O         47.94753       32.05768       82.86776
H         50.99549       30.10876       79.33135
H         49.53687       30.10677       81.04707
H         49.73075       33.15751       81.13367
H         50.97352       31.99914       81.70872
N         47.47875       30.24319       79.13273
C         48.11807       28.98411       78.80729
C         48.57860       28.96448       77.38299
O         48.12614       29.76147       76.57179
H         46.55279       30.43274       78.71813
H         47.43863       28.13072       79.01790
H         49.00570       28.80172       79.43270
N         49.54213       28.07613       77.01972
C         50.03748       27.96425       75.65651
C         48.97712       27.40249       74.71256
O         49.22502       27.36678       73.51787
C         51.33503       27.12364       75.61900
C         51.14930       25.65120       76.04180
C         52.45254       24.88904       76.09518
N         52.45478       23.59118       76.47589
O         53.51010       25.43478       75.81300
H         49.95288       27.49177       77.76218
H         50.31599       28.98687       75.31377
H         52.06638       27.60891       76.30410
H         51.76093       27.15239       74.59200
H         50.46515       25.15108       75.32655
H         50.70001       25.58911       77.05226
H         51.57585       23.11608       76.72813
H         53.33779       23.06199       76.52746
N         47.77802       26.94086       75.18630
C         46.71488       26.40709       74.34274
C         46.42814       24.94334       74.66276
O         45.62576       24.35355       73.94672
C         45.42710       27.27237       74.48646
C         45.67063       28.70542       73.99127
C         44.88183       27.30665       75.92913
H         47.59450       26.95343       76.19397
H         47.02842       26.43310       73.27619
H         44.64018       26.82925       73.83654
H         46.00343       28.69423       72.93191
H         44.73314       29.29831       74.05316
H         46.44632       29.21202       74.60096
H         45.59043       27.80161       76.62576
H         43.93095       27.87902       75.96333
H         44.67593       26.27998       76.29766
N         47.02827       24.28355       75.69790
C         46.81442       22.87287       75.98806
C         46.15302       22.68227       77.34177
O         45.12999       22.01657       77.39342
C         48.15675       22.11541       75.95097
C         48.83958       22.21781       74.60802
N         48.24776       21.74689       73.48533
O         49.94904       22.72207       74.53521
H         47.68947       24.78074       76.31125
H         46.14778       22.40641       75.22803
H         47.97976       21.03995       76.17197
H         48.83174       22.51980       76.73807
H         47.31768       21.30658       73.51915
H         48.72664       21.81933       72.57515
N         46.68914       23.21267       78.48344
C         46.16236       22.91723       79.81737
C         45.60331       24.13811       80.50865
O         45.85788       25.24446       80.06618
C         47.31297       22.38525       80.69377
C         47.89246       21.10327       80.17502
C         47.12567       19.93034       80.20323
C         49.20809       21.06092       79.68577
C         47.67081       18.72497       79.75894
C         49.74890       19.85562       79.23252
C         48.98619       18.68319       79.27327
O         49.52710       17.52393       78.85018
H         47.52260       23.81446       78.41318
H         45.33490       22.17852       79.75438
H         46.98168       22.20912       81.73968
H         48.10001       23.17356       80.73077
H         46.11258       19.94862       80.58618
H         49.81494       21.95811       79.65441
H         47.07148       17.82487       79.79943
H         50.76418       19.83257       78.85740
H         49.03725       16.68986       78.87932
N         44.89403       23.96085       81.67190
C         44.38291       24.98596       82.58306
C         43.17076       25.75986       82.07614
O         42.15576       25.75466       82.76009
C         45.49657       25.93066       83.07919
C         46.63496       25.14769       83.75447
C         47.65095       26.07402       84.35455
O         48.81202       26.04055       83.98007
O         47.29010       26.92969       85.33043
H         44.75952       22.98931       81.99098
H         44.02012       24.45322       83.49396
H         45.04766       26.62148       83.82794
H         45.90141       26.54588       82.24787
H         47.12622       24.48743       83.00754
H         46.22551       24.51164       84.56900
N         43.21056       26.50128       80.93772
C         42.15511       27.42205       80.53252
C         40.82319       26.75036       80.21722
O         39.86164       27.47513       79.99827
C         42.59517       28.25503       79.29978
C         43.99300       28.90660       79.37919
C         44.19269       29.77439       80.58395
O         44.21522       29.23614       81.81806
O         44.39788       30.96598       80.44453
H         44.05947       26.48366       80.38724
H         41.98945       28.11952       81.38291
H         41.83989       29.05520       79.13277
H         42.60282       27.59950       78.40102
H         44.12406       29.50031       78.45918
H         44.80633       28.15569       79.35851
N         40.68027       25.39395       80.15625
C         39.42072       24.74167       79.85496
H         38.59364       25.46357       79.68703
H         39.53617       24.12636       78.93856
H         39.13782       24.08060       80.70038
H         41.48922       24.77838       80.31395
Ca        45.45652       33.25395       81.66211
O         43.34452       31.83974       83.63241
H         43.59388       30.89253       83.77360
H         42.51964       31.80117       83.08669
O         47.92791       35.02283       82.21951
H         48.32850       35.08701       83.12267
H         47.17376       35.66369       82.23468
O         46.07435       33.39194       84.89726
H         46.88415       32.93545       85.23732
H         45.32099       32.90059       85.31077

Ca 1.0



