%chk=apoCaM-CA-Ng.loop1.water2.frame1132.chk
%nprocshared=20
%mem=10GB
%nosave
#b3lyp/svp scf=(tight,noincore,xqc) Test 
#IOP(5/87=12) Density=Current Pop=(MK,readradii) iop(6/33=2) iop(6/42=6)

apoCaM-CA-Ng.loop1.water2.frame1132 

   0  1 
C         83.72086       37.09851       70.56695
C         84.18568       36.81403       69.16945
O         85.01195       37.55746       68.65934
H         82.61702       37.21809       70.58431
H         84.01139       36.25724       71.22919
H         84.18331       38.03296       70.95340
N         83.66169       35.76309       68.47258
C         84.05163       35.43771       67.10179
C         82.96817       35.88414       66.13894
O         82.43814       35.09864       65.36575
C         84.46387       33.95388       66.95712
C         83.35445       32.96325       67.21439
O         82.98346       32.22042       66.31941
O         82.79158       32.85673       68.43257
H         82.91416       35.21678       68.92203
H         84.93981       36.03176       66.81909
H         85.30547       33.73435       67.64835
H         84.83644       33.80915       65.91842
N         82.60940       37.19394       66.14980
C         81.56205       37.77359       65.32197
C         82.07997       38.15908       63.93592
O         81.48084       37.69330       62.97714
C         80.85075       38.92112       66.07382
C         80.27179       38.38660       67.40102
C         79.50698       39.44587       68.19313
C         79.00676       38.84280       69.51611
N         78.27529       39.82976       70.30634
H         83.05552       37.79355       66.85748
H         80.75910       37.01387       65.17664
H         80.01955       39.30423       65.44199
H         81.54251       39.76272       66.28165
H         81.09872       38.01220       68.04219
H         79.58522       37.53774       67.18537
H         78.64346       39.80680       67.59305
H         80.18076       40.30259       68.41136
H         79.87626       38.47601       70.10767
H         78.34072       37.97596       69.30493
H         77.43373       40.15775       69.77961
H         77.96467       39.38543       71.20072
H         78.89574       40.64146       70.52934
N         83.18462       38.93179       63.68407
C         84.09506       39.48880       64.67834
C         85.34964       38.62983       64.77327
O         85.55182       37.74303       63.95418
C         84.32248       41.00440       64.44837
C         84.65485       41.40123       63.02879
O         85.82092       41.07411       62.44192
O         83.84792       42.06524       62.39756
H         83.45434       39.04899       62.69407
H         83.65275       39.42483       65.67822
H         85.08525       41.40534       65.15028
H         83.35788       41.50140       64.69589
N         86.16976       38.76162       65.85430
C         87.27244       37.85873       66.15697
C         88.43912       37.95817       65.17592
O         88.85895       39.28148       65.12795
H         85.94420       39.48204       66.55700
H         86.91044       36.81181       66.18407
H         87.65882       38.10909       67.16974
N         89.53257       37.11091       65.66615
C         90.84611       37.30122       65.01064
C         91.92668       36.99018       66.03960
O         91.58962       36.43399       67.07699
C         90.96536       36.39963       63.75862
C         89.90718       36.70852       62.73680
O         89.85295       37.81323       62.22016
O         89.01444       35.76351       62.38387
H         89.25158       36.10188       65.69473
H         90.97533       38.36499       64.73102
H         90.87090       35.33544       64.06918
H         91.94778       36.51963       63.26916
N         93.24207       37.32987       65.90544
C         93.86423       38.04828       64.80614
C         93.38301       39.47668       64.64772
O         93.17644       40.16735       65.63512
H         93.87401       37.06066       66.67672
H         93.80122       37.48040       63.85860
H         94.94973       38.12319       65.03364
N         93.32688       40.01661       63.39895
C         93.02688       41.41870       63.10873
C         91.58103       41.77058       63.42344
O         90.69795       40.98833       63.10641
C         93.36482       41.71895       61.62618
C         93.13882       43.18629       61.24943
O         92.61223       40.89302       60.77730
H         93.59147       39.40487       62.61104
H         93.70728       42.06647       63.70682
H         94.45303       41.49873       61.50093
H         93.16558       40.72266       59.97059
H         92.06441       43.45565       61.33000
H         93.73261       43.85301       61.90991
H         93.46426       43.34949       60.20095
N         91.28208       42.98224       63.98911
C         89.94068       43.48375       64.29779
C         89.07646       43.62988       63.03704
O         88.83067       42.65036       62.35001
C         89.22889       42.60701       65.36958
C         90.09489       42.33697       66.62977
C         87.85727       43.19232       65.76486
C         90.45569       43.57393       67.45619
H         92.06592       43.61393       64.21467
H         90.05945       44.49319       64.74921
H         89.04026       41.62701       64.91557
H         91.03601       41.83275       66.32585
H         89.54785       41.62940       67.29150
H         87.18771       43.26858       64.88298
H         87.35647       42.53302       66.50579
H         87.96398       44.20751       66.20075
H         91.04408       44.29710       66.85659
H         89.54635       44.06982       67.85268
H         91.07352       43.26129       68.32483
N         88.49288       44.82643       62.73859
C         87.48256       44.97124       61.68380
C         88.04106       44.99555       60.25618
O         87.23889       45.01546       59.33071
C         86.62030       46.24375       61.93550
C         87.40193       47.55734       61.77779
O         86.07242       46.20318       63.22917
H         88.65541       45.60862       63.38868
H         86.78561       44.10706       61.77144
H         85.79247       46.28187       61.18844
H         85.29610       45.58535       63.19818
H         86.72265       48.41752       61.95968
H         88.24085       47.62754       62.49961
H         87.80760       47.65396       60.74922
N         89.37523       45.09249       59.99158
C         89.90084       45.34065       58.64400
C         89.72023       44.15169       57.70531
O         90.30175       43.10407       57.94934
C         91.39472       45.74918       58.72383
C         92.02507       45.97209       57.34446
O         91.51344       46.94641       59.45251
H         90.02877       45.10951       60.78778
H         89.36102       46.21923       58.22311
H         91.98004       44.93852       59.21264
H         91.63080       46.70818       60.40815
H         92.01816       45.03521       56.74779
H         91.47781       46.76097       56.78709
H         93.08413       46.28327       57.46619
N         88.95689       44.28130       56.57498
C         88.79776       43.26205       55.53703
C         88.34520       41.95755       56.16591
O         89.08666       40.98334       56.15215
C         90.08779       43.11886       54.68189
C         89.78265       42.36394       53.36434
C         91.00222       42.07449       52.47226
C         91.75803       43.32685       52.00194
N         92.83351       42.96187       51.07685
H         88.44877       45.16693       56.42916
H         88.01231       43.62170       54.83384
H         90.88903       42.61633       55.26536
H         90.44475       44.13431       54.40610
H         89.04596       42.95668       52.77630
H         89.31641       41.38330       53.59526
H         90.62880       41.53579       51.57237
H         91.70233       41.40160       53.01137
H         92.19650       43.85050       52.87844
H         91.05742       44.02059       51.48656
H         93.49821       42.29719       51.53582
H         92.43350       42.51791       50.21780
H         93.35646       43.82256       50.79595
N         87.13601       41.89461       56.78476
C         86.70960       40.75368       57.58353
C         86.39530       41.23940       58.99563
O         87.18933       40.93292       59.87216
C         85.58546       39.95849       56.89502
C         86.09941       39.24598       55.63413
C         85.00575       38.44836       54.98499
O         84.67109       38.68643       53.83567
O         84.39706       37.45658       55.66370
H         86.52073       42.71602       56.72017
H         87.55485       40.03576       57.69520
H         84.75381       40.62277       56.59673
H         85.21320       39.18572       57.60341
H         86.92364       38.55095       55.90653
H         86.49423       39.99408       54.91241
N         85.33093       42.02074       59.34877
C         84.22736       42.40698       58.49903
H         83.52826       43.05081       59.07365
H         84.56665       42.97928       57.61793
H         83.64732       41.51084       58.20351
H         85.28366       42.34709       60.32308
Ca        87.51479       40.13229       63.53492
O         89.97334       40.30205       59.94340
H         89.83558       40.62844       59.01956
H         90.02488       41.12760       60.48691
O         86.80164       38.19359       60.84522
H         85.82588       38.31306       60.72541
H         86.96249       37.23698       60.64814

Ca 1.0



