%chk=apoCaM-CA-Ng.loop4.water3.frame23.chk
%nprocshared=20
%mem=10GB
%nosave
#b3lyp/svp scf=(tight,noincore,xqc) Test 
#IOP(5/87=12) Density=Current Pop=(MK,readradii) iop(6/33=2) iop(6/42=6)

apoCaM-CA-Ng.loop4.water3.frame23 

   -3  1 
C         80.33290       59.09214       39.95293
C         80.20122       60.55160       39.65021
O         79.10565       61.07991       39.75719
H         81.05145       58.95449       40.78800
H         79.35231       58.66416       40.25331
H         80.70202       58.55672       39.05445
N         81.30309       61.27523       39.29952
C         81.30543       62.70999       39.03691
C         80.74704       63.47601       40.22573
O         79.80677       64.23579       40.06875
C         80.72115       63.05466       37.63692
C         79.32594       62.57759       37.33892
O         78.27560       63.04177       38.03344
O         79.13572       61.78411       36.43048
H         82.21298       60.79030       39.27063
H         82.36675       63.03794       38.96124
H         81.39649       62.59002       36.88408
H         80.76560       64.15479       37.47963
N         81.32327       63.29410       41.45645
C         81.01133       63.98989       42.71044
C         81.56020       65.41165       42.69971
O         82.45883       65.68431       43.48480
C         79.51914       63.87580       43.13277
C         79.20314       64.62010       44.46284
C         79.11189       62.39617       43.23714
C         79.96540       64.12935       45.69611
H         82.07518       62.59026       41.51695
H         81.59441       63.46498       43.50051
H         78.88621       64.35136       42.35662
H         78.11572       64.52962       44.67453
H         79.42420       65.69862       44.34364
H         79.21793       61.89002       42.25806
H         79.74017       61.85386       43.97254
H         78.05861       62.30759       43.55566
H         79.65539       64.73235       46.57575
H         79.73671       63.06703       45.91302
H         81.05874       64.25708       45.56855
N         81.11667       66.36110       41.83245
C         81.71060       67.68691       41.75247
C         81.44524       68.51412       43.01500
O         82.43558       68.91328       43.61233
C         81.34376       68.37102       40.42029
C         81.97023       67.63852       39.25755
O         83.30987       67.51512       39.17918
O         81.27500       67.16185       38.37672
H         80.37232       66.13255       41.16900
H         82.81841       67.56924       41.68987
H         81.74405       69.40759       40.41039
H         80.25022       68.39094       40.27371
N         80.22173       68.79656       43.56636
C         78.90963       68.39369       43.08456
C         78.42824       69.23254       41.92623
O         79.16022       70.10854       41.48695
H         80.22771       69.30246       44.46680
H         78.17981       68.56861       43.90422
H         78.90789       67.31582       42.85970
N         77.18294       69.09517       41.38242
C         76.11882       68.21027       41.87081
C         76.41764       66.69194       41.71749
O         77.58262       66.44717       40.98913
C         74.79691       68.54544       41.13195
C         74.85116       68.29449       39.64577
O         75.00547       67.04645       39.16865
O         74.71844       69.22109       38.86309
H         76.95445       69.73696       40.60655
H         75.94169       68.44908       42.94128
H         74.57008       69.61899       41.31193
H         73.94829       67.96441       41.54198
N         76.40171       65.90774       42.96546
C         75.09415       65.93643       43.65070
C         75.21377       66.61557       44.98710
O         76.32102       66.92314       45.41003
H         76.59158       64.91471       42.69742
H         74.71554       64.90691       43.83338
H         74.32282       66.44537       43.04510
N         74.09546       66.90456       45.71245
C         74.18354       67.54650       47.01808
C         74.56142       66.53398       48.09250
O         75.01642       66.94651       49.14979
C         72.87425       68.26768       47.40713
C         72.37760       69.28609       46.35945
C         73.39193       70.35362       46.02826
N         73.81926       70.52622       44.75380
O         73.82181       71.07704       46.91418
H         73.17004       66.69051       45.30979
H         74.97419       68.32855       46.96053
H         73.03708       68.79856       48.37161
H         72.06747       67.51804       47.56205
H         71.46445       69.77930       46.75646
H         72.08442       68.74857       45.43344
H         73.46220       69.93418       43.98918
H         74.50501       71.26106       44.52494
N         74.34681       65.19499       47.90774
C         74.69514       64.16386       48.88458
C         73.45534       63.49196       49.47156
O         73.61523       62.56257       50.25163
C         75.63861       63.10474       48.23770
C         76.91575       63.75914       47.69543
C         74.96025       62.28091       47.12476
H         73.89160       64.88141       47.03944
H         75.24130       64.61287       49.74346
H         75.94375       62.39137       49.03597
H         77.43822       64.31429       48.50269
H         77.60460       62.97978       47.30671
H         76.68060       64.46281       46.86898
H         75.66158       61.50575       46.74904
H         74.06328       61.75518       47.51480
H         74.65820       62.91419       46.26586
N         72.19452       63.91690       49.16925
C         70.97884       63.28966       49.67801
C         70.04888       62.85407       48.54886
O         68.96223       62.38061       48.85132
C         70.27459       64.25835       50.65099
C         69.95412       65.60244       50.04230
N         70.49779       66.73154       50.55493
O         69.19865       65.67486       49.08479
H         72.07160       64.74337       48.56648
H         71.21270       62.37468       50.26629
H         70.94738       64.40196       51.52430
H         69.33875       63.79586       51.03396
H         71.13509       66.69209       51.36423
H         70.28254       67.65096       50.14303
N         70.40580       62.94809       47.23118
C         69.50070       62.55477       46.14771
C         70.23152       62.50411       44.80552
O         71.31801       63.05047       44.71440
C         68.35639       63.59890       46.05597
C         67.20240       63.15823       45.19763
C         66.94600       63.76478       43.95654
C         66.35466       62.13763       45.65450
C         65.86091       63.34404       43.18052
C         65.26229       61.73072       44.88602
C         65.01252       62.32763       43.64633
O         63.95636       61.91840       42.91535
H         71.35516       63.26853       47.00466
H         69.13376       61.53082       46.38170
H         68.79871       64.54736       45.67444
H         67.93304       63.83406       47.05441
H         67.59053       64.55151       43.58433
H         66.53221       61.67027       46.61543
H         65.67842       63.81009       42.22046
H         64.60862       60.95164       45.25713
H         63.74742       62.30286       42.05234
N         69.65198       61.92051       43.70805
C         70.20845       61.90615       42.35109
C         71.32570       60.88170       42.14217
O         71.21207       60.11311       41.19829
C         70.57475       63.33146       41.87116
C         70.97365       63.37220       40.38862
C         71.18791       64.78908       39.93692
O         72.12935       65.55413       40.52258
O         70.50735       65.25451       39.03652
H         68.71545       61.50689       43.82015
H         69.38409       61.57822       41.67485
H         71.40844       63.75991       42.46208
H         69.67529       63.97222       42.00961
H         70.16886       62.91055       39.77504
H         71.91266       62.79935       40.23064
N         72.44372       60.83722       42.92114
C         73.60008       59.98171       42.66496
C         73.42191       58.58858       43.27397
O         74.23621       58.18347       44.09470
C         74.86223       60.67826       43.25264
C         75.11550       62.09864       42.71027
C         75.58258       62.10132       41.28555
O         74.86414       61.68377       40.39385
O         76.80215       62.58254       40.98431
H         72.53862       61.51325       43.67689
H         73.74574       59.86385       41.57149
H         75.77265       60.06056       43.08518
H         74.71316       60.76909       44.35184
H         75.89949       62.56317       43.33722
H         74.21637       62.74025       42.80951
N         72.38966       57.77854       42.90922
C         72.22926       56.44744       43.45263
H         71.31133       55.97783       43.03903
H         73.10347       55.82031       43.17605
H         72.13834       56.49412       44.55840
H         71.69299       58.09297       42.22701
Ca        76.90869       64.99698       39.38959
O         76.09626       65.55872       36.36405
H         75.89839       66.52666       36.29993
H         75.22132       65.11875       36.22191
O         74.57977       63.53249       38.26935
H         73.84553       63.09177       37.77406
H         75.37574       62.97316       38.08209
O         78.46252       67.00318       37.55408
H         77.95903       67.84228       37.70243
H         78.76141       66.73393       38.45817

Ca 1.0



