%chk=apoCaM-CA-Ng.loop1.water3.frame1203.chk
%nprocshared=20
%mem=10GB
%nosave
#b3lyp/svp scf=(tight,noincore,xqc) Test 
#IOP(5/87=12) Density=Current Pop=(MK,readradii) iop(6/33=2) iop(6/42=6)

apoCaM-CA-Ng.loop1.water3.frame1203 

   0  1 
C         27.22779      110.27398       91.48512
C         26.65599      110.86576       92.73566
O         25.77608      110.25529       93.32696
H         28.31592      110.10559       91.61442
H         26.73662      109.30398       91.25239
H         27.05601      110.96843       90.63581
N         27.09216      112.08028       93.18287
C         26.51902      112.74067       94.35054
C         25.75346      113.97407       93.91297
O         25.91119      115.04831       94.47565
C         27.57637      113.00221       95.44644
C         28.67189      113.95179       95.03626
O         29.43223      113.67129       94.12416
O         28.83883      115.10950       95.70382
H         27.81224      112.57288       92.63508
H         25.75887      112.07991       94.81108
H         28.03373      112.03597       95.75011
H         27.05688      113.42198       96.33611
N         24.86112      113.85086       92.89369
C         23.96249      114.91140       92.46273
C         22.97852      115.22945       93.57788
O         22.91052      116.39417       93.94780
C         23.24810      114.54005       91.14063
C         24.27782      114.37454       90.00783
C         23.63038      113.92642       88.69686
C         24.70068      113.77499       87.60588
N         24.11775      113.28547       86.35882
H         24.80631      112.94089       92.41454
H         24.55487      115.82734       92.23447
H         22.54486      115.35533       90.86041
H         22.65743      113.60994       91.24342
H         25.03147      113.60839       90.28679
H         24.80496      115.34219       89.85377
H         22.86955      114.67010       88.37455
H         23.13045      112.94610       88.85898
H         25.48142      113.05719       87.94513
H         25.18720      114.75990       87.42603
H         23.38683      113.95009       86.01661
H         24.87215      113.20727       85.63892
H         23.69649      112.33999       86.50977
N         22.22227      114.29683       94.23674
C         22.21732      112.84848       94.00329
C         22.90789      112.13167       95.15564
O         23.37192      112.77691       96.08472
C         20.77789      112.34885       93.75927
C         19.90201      112.64318       94.93197
O         20.21081      112.16030       96.14742
O         18.95707      113.40419       94.80817
H         21.64553      114.64086       95.02092
H         22.78466      112.57466       93.10925
H         20.76427      111.25811       93.55938
H         20.37314      112.85973       92.85741
N         23.04948      110.77500       95.12383
C         23.78743      110.01694       96.12027
C         23.21303      110.09156       97.51561
O         22.21750      110.76526       97.74362
H         22.66596      110.25225       94.32409
H         24.83726      110.37680       96.15131
H         23.80420      108.95072       95.80981
N         23.81380      109.37670       98.50680
C         23.40110      109.38564       99.91083
C         24.00066      108.18709      100.65124
O         25.14070      107.83421      100.37539
C         23.86760      110.66987      100.63587
C         23.19098      111.91747      100.15261
O         21.85424      112.04526      100.26503
O         23.84893      112.83192       99.68369
H         24.59812      108.76711       98.22427
H         22.29935      109.31960       99.95669
H         24.97147      110.76447      100.53485
H         23.63371      110.58895      101.71899
N         23.35745      107.54795      101.67377
C         22.05289      107.92999      102.19052
C         20.92512      107.62504      101.23751
O         21.13850      107.00201      100.20681
H         23.85457      106.78801      102.16393
H         22.06618      109.01027      102.44178
H         21.84627      107.37057      103.12838
N         19.66866      108.05513      101.54319
C         18.51042      107.78757      100.69549
C         18.69077      108.39302       99.30831
O         19.46743      109.32383       99.14417
C         17.20716      108.31115      101.35428
C         16.91217      107.60259      102.68393
O         16.11889      108.10791      100.48923
H         19.54464      108.58598      102.41808
H         18.42916      106.68343      100.57862
H         17.34001      109.40201      101.54417
H         15.44013      108.79858      100.71085
H         17.72708      107.74819      103.42144
H         15.98031      108.01279      103.12732
H         16.77518      106.51332      102.51531
N         18.03259      107.83399       98.25009
C         18.15231      108.23158       96.84871
C         17.55783      109.60484       96.61186
O         18.05764      110.58140       97.14792
C         19.61569      108.14270       96.31357
C         20.19266      106.72897       96.57692
C         19.64659      108.48602       94.80706
C         21.65203      106.56866       96.15140
H         17.42255      107.02400       98.44124
H         17.55545      107.49946       96.25911
H         20.24923      108.88670       96.84152
H         19.57578      105.96357       96.05810
H         20.15534      106.52129       97.66679
H         19.03930      107.75740       94.22820
H         19.24422      109.50296       94.62274
H         20.68060      108.49286       94.41134
H         22.28479      107.31439       96.67408
H         22.00446      105.55261       96.42523
H         21.77150      106.67757       95.05481
N         16.49522      109.74141       95.76852
C         15.91286      111.02701       95.41040
C         14.49179      111.16552       95.91892
O         13.92061      112.22288       95.68804
C         15.99484      111.25413       93.87840
C         15.18916      110.24383       93.05194
O         17.34003      111.20254       93.47441
H         16.08680      108.89413       95.34870
H         16.48482      111.85413       95.88735
H         15.56760      112.26585       93.66772
H         17.53783      112.03833       92.97637
H         15.57943      109.21378       93.18001
H         14.11679      110.26642       93.33839
H         15.26542      110.50370       91.97478
N         13.85351      110.18360       96.63217
C         12.51780      110.38414       97.18839
C         12.61905      111.51274       98.20210
O         13.19952      111.31523       99.26090
C         11.97728      109.07439       97.81059
C         10.55041      109.22972       98.34133
O         11.98611      108.06962       96.82698
H         14.32682      109.28480       96.80421
H         11.84409      110.66719       96.34767
H         12.65136      108.78677       98.65359
H         12.16420      107.20796       97.28740
H          9.86144      109.51148       97.51662
H         10.20910      108.26492       98.77402
H         10.50551      110.00346       99.13547
N         12.23232      112.77038       97.83992
C         12.55913      114.00247       98.55856
C         14.06663      114.18314       98.71245
O         14.81531      113.23422       98.53274
C         11.88868      114.09875       99.93731
C         10.36831      113.92807       99.87562
C          9.76812      114.13577      101.27031
C          8.25789      113.88385      101.27836
N          7.70525      114.11410      102.61290
H         11.76521      112.88937       96.92750
H         12.18704      114.84239       97.92870
H         12.12149      115.09914      100.36578
H         12.30964      113.32723      100.61757
H         10.13221      112.90366       99.51296
H          9.92891      114.66955       99.17238
H          9.97135      115.17937      101.59913
H         10.24901      113.43606      101.98868
H          8.06168      112.83110      100.97510
H          7.75739      114.56066      100.55099
H          6.68134      113.90457      102.60190
H          8.17170      113.48903      103.31020
H          7.84432      115.11340      102.88947
N         14.58761      115.40345       99.02818
C         16.01487      115.62143       99.25840
C         16.89183      114.99127       98.15389
O         18.24687      115.26367       98.34501
C         16.36246      117.11925       99.46039
C         15.76182      117.72325      100.73126
C         16.21916      119.14728      100.88458
O         16.95987      119.50752      101.94991
O         15.93374      119.98099      100.03915
H         13.94269      116.20439       99.09340
H         16.30951      115.08401      100.18639
H         16.04511      117.71832       98.58547
H         17.46609      117.21854       99.56044
H         16.10725      117.13404      101.60851
H         14.65374      117.69895      100.69857
N         16.47112      115.08161       96.74417
C         16.09048      116.40812       96.27569
H         15.13977      116.71872       96.75430
H         16.90064      117.14436       96.45643
H         15.89087      116.35856       95.18395
H         17.25031      114.72334       96.14690
Ca        19.22339      113.32402       97.76005
O         19.25995      113.72530      101.18469
H         18.28001      113.83472      101.27235
H         19.49885      113.06264      101.88059
O         21.48205      115.25822       98.71969
H         21.19993      115.20731       99.66745
H         21.85949      114.36406       98.52453
O         17.18390      111.55271      100.03510
H         16.24388      111.39194      100.30082
H         17.11992      112.11222       99.22213

Ca 1.0



