%chk=apoCaM-CA-Ng.loop3.water3.frame916.chk
%nprocshared=20
%mem=10GB
%nosave
#b3lyp/svp scf=(tight,noincore,xqc) Test 
#IOP(5/87=12) Density=Current Pop=(MK,readradii) iop(6/33=2) iop(6/42=6)

apoCaM-CA-Ng.loop3.water3.frame916 

   0  1 
C        -16.80069       -1.16930       24.49106
C        -18.02121       -2.02634       24.33193
O        -18.53459       -2.12412       23.22637
H        -15.99320       -1.55515       23.83387
H        -17.03886       -0.12408       24.20589
H        -16.43255       -1.17707       25.53888
N        -18.53269       -2.70373       25.39709
C        -19.68178       -3.59914       25.28451
C        -20.95095       -2.79929       24.94230
O        -20.91128       -1.57682       24.98244
C        -19.80145       -4.39610       26.61539
C        -20.56990       -5.68680       26.57831
O        -20.74923       -6.29839       27.61851
O        -21.02491       -6.21605       25.43322
H        -18.04888       -2.61666       26.30500
H        -19.45703       -4.30712       24.46358
H        -20.22318       -3.72018       27.39127
H        -18.78867       -4.70197       26.95449
N        -22.10795       -3.42391       24.58296
C        -23.35772       -2.73701       24.25847
C        -24.42698       -3.08253       25.28184
O        -25.05542       -2.17490       25.80824
C        -23.82142       -3.04314       22.81116
C        -24.13397       -4.51943       22.50705
C        -24.67656       -4.69919       21.08347
C        -24.99501       -6.17654       20.81273
N        -25.58051       -6.36308       19.48707
H        -22.10693       -4.44203       24.52417
H        -23.21956       -1.63288       24.29145
H        -23.03650       -2.69089       22.10661
H        -24.74085       -2.44519       22.62151
H        -24.91874       -4.88483       23.19738
H        -23.21698       -5.13143       22.63204
H        -23.93115       -4.33802       20.34178
H        -25.60866       -4.10169       20.97582
H        -25.71068       -6.55062       21.57899
H        -24.05894       -6.76814       20.88153
H        -25.78366       -7.37955       19.34706
H        -26.47580       -5.82763       19.41219
H        -24.91143       -6.04551       18.74915
N        -24.63618       -4.37371       25.66332
C        -25.59399       -4.77951       26.68108
C        -24.89178       -5.03223       28.01019
O        -25.58156       -5.36689       28.96371
C        -26.45431       -5.96861       26.15788
C        -25.63489       -7.09884       25.59201
O        -25.67254       -7.33968       24.39616
O        -24.77560       -7.77036       26.36772
H        -24.02434       -5.10685       25.28068
H        -26.30287       -3.95281       26.90553
H        -27.08795       -5.57758       25.33219
H        -27.13101       -6.34795       26.95311
N        -23.54613       -4.81645       28.18613
C        -22.89438       -4.93554       29.48638
C        -22.95333       -6.33569       30.06306
O        -22.63807       -6.50002       31.23245
H        -22.96254       -4.50080       27.39982
H        -23.40963       -4.24003       30.18363
H        -21.83128       -4.61703       29.42157
N        -23.37815       -7.38393       29.30776
C        -23.65973       -8.71321       29.81193
C        -22.81105       -9.74420       29.08964
O        -22.85263       -9.82551       27.87036
C        -25.16351       -8.97863       29.59324
C        -25.57566      -10.37865       29.96273
N        -26.11688      -11.19781       29.02955
O        -25.42163      -10.77691       31.10723
H        -23.56843       -7.22903       28.31459
H        -23.46627       -8.77693       30.90566
H        -25.41658       -8.80110       28.52915
H        -25.75166       -8.25300       30.19736
H        -26.25487      -10.87670       28.05922
H        -26.39980      -12.15755       29.27334
N        -22.06313      -10.61873       29.81390
C        -21.31530      -11.71942       29.23796
C        -20.11226      -11.27295       28.44401
O        -19.28258      -10.55030       28.97758
H        -22.08005      -10.55256       30.84292
H        -21.99451      -12.36488       28.63802
H        -20.92518      -12.34047       30.07244
N        -19.89778      -11.76630       27.19147
C        -18.65573      -11.54122       26.45095
C        -18.52491      -10.10210       25.96641
O        -19.40922       -9.30109       26.23206
C        -18.56338      -12.52379       25.25105
C        -18.70869      -13.97742       25.65074
C        -19.67390      -14.78652       25.02476
C        -17.87804      -14.54487       26.63392
C        -19.80274      -16.13460       25.37295
C        -18.01898      -15.88936       26.99029
C        -18.97647      -16.68976       26.35999
O        -19.09002      -17.98776       26.70708
H        -20.59842      -12.41547       26.80038
H        -17.79865      -11.76299       27.12157
H        -17.57258      -12.42518       24.76423
H        -19.33413      -12.26292       24.49618
H        -20.32011      -14.37968       24.25673
H        -17.12418      -13.95069       27.13231
H        -20.54359      -16.74652       24.87363
H        -17.37885      -16.31059       27.75522
H        -19.73199      -18.57868       26.28818
N        -17.44409       -9.72997       25.20795
C        -17.24413       -8.43227       24.55851
C        -18.39631       -8.16339       23.60484
O        -19.50841       -7.96843       24.06599
C        -17.03411       -7.27876       25.58245
C        -16.84741       -5.89447       24.90117
C        -15.85508       -7.58697       26.52100
C        -15.62315       -5.75042       23.99444
H        -16.71604      -10.43465       25.02242
H        -16.31058       -8.51577       23.96026
H        -17.94486       -7.19729       26.21385
H        -16.78021       -5.11332       25.68869
H        -17.74075       -5.67703       24.28683
H        -14.91004       -7.70860       25.95167
H        -15.72784       -6.76703       27.25952
H        -16.03973       -8.52568       27.08367
H        -14.68310       -5.89029       24.56489
H        -15.66181       -6.46862       23.15103
H        -15.61153       -4.72433       23.56785
N        -18.22265       -8.19283       22.25184
C        -19.37037       -8.07396       21.35305
C        -19.11406       -8.68432       19.99005
O        -17.97895       -8.96243       19.63495
C        -19.79769       -6.60034       21.16597
O        -20.04630       -5.95719       22.38474
H        -17.29183       -8.43268       21.88151
H        -20.19475       -8.67689       21.78626
H        -20.69478       -6.52565       20.50779
H        -18.98501       -6.04576       20.65028
H        -20.98788       -6.14838       22.62560
N        -20.18006       -8.90789       19.16750
C        -20.06424       -9.41349       17.80094
C        -21.43282       -9.47370       17.11441
O        -22.44535       -9.41964       17.79780
C        -19.44808      -10.82818       17.77805
H        -21.10886       -8.66090       19.53787
H        -19.42044       -8.68796       17.26363
H        -20.09580      -11.53578       18.33981
H        -19.34331      -11.20753       16.74184
H        -18.43711      -10.85351       18.22729
N        -21.58423       -9.60922       15.76415
C        -20.51058       -9.58969       14.77672
C        -20.43850      -10.92592       14.05364
O        -21.34042      -11.73391       14.23264
C        -20.81252       -8.43121       13.81250
H        -22.54929       -9.69366       15.40333
H        -19.53104       -9.41737       15.25421
H        -20.85575       -7.47831       14.38215
H        -20.06614       -8.30306       13.01540
H        -21.79709       -8.59029       13.32193
N        -19.40094      -11.29042       13.24285
C        -18.16172      -10.54217       13.04694
C        -17.18551      -10.85456       14.16093
O        -16.77903       -9.93745       14.86253
C        -17.54488      -10.88785       11.67274
C        -18.40367      -10.40289       10.49100
C        -18.43591       -8.90151       10.39716
O        -17.39856       -8.27430       10.24887
O        -19.60811       -8.24203       10.45081
H        -19.44352      -12.23872       12.83585
H        -18.33178       -9.45469       13.06437
H        -17.42264      -11.99017       11.59605
H        -16.53385      -10.43346       11.58025
H        -19.43592      -10.80666       10.57769
H        -17.96292      -10.78834        9.54733
N        -16.75046      -12.12485       14.38043
C        -15.79384      -12.43336       15.42114
H        -14.84602      -11.88237       15.23778
H        -16.20282      -12.14430       16.41268
H        -15.57521      -13.52184       15.42592
H        -17.09976      -12.89505       13.79121
Ca       -22.65141       -7.73503       25.66516
O        -23.97315      -10.70545       25.19610
H        -24.32985      -10.75974       24.27428
H        -24.73709      -10.38547       25.73789
O        -21.16221      -10.56378       23.61627
H        -22.02902      -10.83425       23.22349
H        -20.49749      -10.79053       22.91866
O        -22.61768       -8.14158       22.72238
H        -22.63539       -8.46056       21.78574
H        -23.56052       -7.93470       22.93558

Ca 1.0



