%chk=apoCaM-CA-Ng.loop2.water3.frame699.chk
%nprocshared=20
%mem=10GB
%nosave
#b3lyp/svp scf=(tight,noincore,xqc) Test 
#IOP(5/87=12) Density=Current Pop=(MK,readradii) iop(6/33=2) iop(6/42=6)

apoCaM-CA-Ng.loop2.water3.frame699 

   -2  1 
C         69.51558      103.53549      -11.20621
C         69.71928      105.01576      -11.06317
O         68.96214      105.79308      -11.62697
H         68.62894      103.30489      -11.83310
H         70.41381      103.08896      -11.68714
H         69.38510      103.08082      -10.20271
N         70.77752      105.46926      -10.34081
C         71.13436      106.87770      -10.22411
C         70.14867      107.63681       -9.35442
O         70.01892      107.30395       -8.18670
C         72.55441      106.98183       -9.64863
C         73.04518      108.39687       -9.66559
O         72.71028      109.24100       -8.67212
O         73.66727      108.81257      -10.62978
H         71.40087      104.76173       -9.92043
H         71.16599      107.30984      -11.24964
H         73.22331      106.36947      -10.29372
H         72.61363      106.55952       -8.62025
N         69.43194      108.68478       -9.85821
C         68.43932      109.42872       -9.07724
C         67.33995      108.48649       -8.62824
O         67.16013      107.47111       -9.28950
C         67.83031      110.53199       -9.96038
H         69.58898      108.94878      -10.84261
H         68.94063      109.88780       -8.19806
H         68.63243      111.19761      -10.34394
H         67.31194      110.07853      -10.83572
H         67.09802      111.15338       -9.40909
N         66.50334      108.71431       -7.57658
C         66.47893      109.86830       -6.66868
C         67.61897      109.94059       -5.65365
O         67.97943      108.93354       -5.06360
C         65.12831      109.92658       -5.89458
C         64.60914      108.59730       -5.40579
O         63.49371      108.22027       -5.72839
O         65.39011      107.77870       -4.69655
H         65.77728      107.99270       -7.45878
H         66.50140      110.80771       -7.25155
H         64.35325      110.33443       -6.57550
H         65.21848      110.63380       -5.03988
N         68.07766      111.17499       -5.26292
C         68.93684      111.39614       -4.10436
C         70.30510      110.76436       -4.23077
O         70.65588      110.35088       -5.32694
H         67.71265      112.01445       -5.73781
H         68.39933      111.00156       -3.22929
H         69.08147      112.49030       -3.94288
N         71.17846      110.66283       -3.17901
C         70.89716      111.07574       -1.79759
C         71.49280      110.14966       -0.71513
O         71.16633      110.35821        0.44669
C         71.35356      112.53129       -1.56739
C         72.83510      112.71175       -1.79360
N         73.66749      112.96228       -0.75720
O         73.28869      112.62834       -2.92537
H         72.10993      110.29425       -3.40730
H         69.80635      111.04540       -1.61874
H         71.08763      112.82012       -0.52706
H         70.80413      113.22470       -2.24146
H         73.31077      113.01035        0.20803
H         74.67859      113.08139       -0.91785
N         72.39020      109.15235       -0.98561
C         73.02289      108.32822        0.03451
C         72.16348      107.20274        0.58387
O         72.69136      106.45633        1.39679
H         72.74055      109.01080       -1.93639
H         73.39021      108.97162        0.86816
H         73.91855      107.85044       -0.41638
N         70.84866      107.02384        0.24586
C         69.99468      106.03544        0.91663
C         69.14616      105.19570       -0.04199
O         69.18033      105.40212       -1.24682
C         69.09385      106.77560        1.93945
C         69.92956      107.38523        3.07063
O         68.35919      107.77624        1.29071
H         70.40402      107.68595       -0.40450
H         70.61325      105.30211        1.47958
H         68.39271      106.05522        2.40586
H         67.77380      108.20996        1.96293
H         69.25241      107.82547        3.83168
H         70.53743      106.59529        3.56156
H         70.59958      108.18343        2.68961
N         68.32966      104.22487        0.48138
C         67.43733      103.34941       -0.27354
C         65.98421      103.82550       -0.12584
O         65.49466      104.03976        0.97283
C         67.58248      101.86662        0.20818
C         66.53153      100.93059       -0.45943
C         69.00201      101.34095       -0.08190
C         66.49856       99.51041        0.10666
H         68.32313      104.09574        1.50243
H         67.71047      103.36796       -1.34644
H         67.40224      101.85985        1.30492
H         66.71632      100.87871       -1.55319
H         65.51258      101.33187       -0.28665
H         69.16165      100.35583        0.40142
H         69.15712      101.22459       -1.17815
H         69.77707      102.02712        0.31263
H         65.71940       98.91930       -0.41580
H         67.45985       98.98221       -0.03757
H         66.23922       99.54041        1.18533
N         65.23959      103.92712       -1.25792
C         63.84570      104.25506       -1.44715
C         63.08535      103.08359       -2.13736
O         61.88782      103.23473       -2.33375
C         63.81672      105.51781       -2.35482
C         64.36694      106.75072       -1.65220
O         65.50132      107.39384       -2.02194
O         63.73108      107.21560       -0.72403
H         65.70759      103.74678       -2.11726
H         63.35029      104.46289       -0.47363
H         62.77385      105.75226       -2.65976
H         64.38604      105.30165       -3.28884
N         63.68904      101.90076       -2.52057
C         63.00004      100.75517       -3.13491
C         63.57667      100.40167       -4.52744
O         64.00628       99.27421       -4.71636
C         63.10638       99.56734       -2.13321
C         62.25991       98.33572       -2.40296
C         60.91528       98.44324       -2.80496
C         62.79132       97.05194       -2.15892
C         60.12942       97.29978       -2.97412
C         61.99250       95.91126       -2.30961
C         60.66377       96.03585       -2.72010
H         64.67877      101.76021       -2.32850
H         61.93088      101.00445       -3.26644
H         62.77443       99.94153       -1.14301
H         64.17363       99.27569       -2.02241
H         60.46100       99.40464       -2.98796
H         63.81242       96.92982       -1.81815
H         59.09859       97.39686       -3.28882
H         62.39831       94.92981       -2.09650
H         60.04428       95.15486       -2.83286
N         63.58056      101.29395       -5.57182
C         64.06845      101.02155       -6.93710
C         65.52172      100.52330       -7.02138
O         65.82627       99.66429       -7.83542
C         63.96855      102.39311       -7.62152
C         62.80630      103.04530       -6.90645
C         63.03111      102.62801       -5.46217
H         63.37854      100.29094       -7.41515
H         64.86460      103.00310       -7.37110
H         63.86588      102.34055       -8.72750
H         62.70967      104.14327       -7.04965
H         61.87517      102.55070       -7.26273
H         63.76819      103.27287       -4.93639
H         62.04604      102.65210       -4.94910
N         66.44414      101.01340       -6.14911
C         67.84713      100.58878       -5.99370
C         67.92949       99.07926       -5.96100
O         68.75484       98.51132       -6.66138
C         68.56070      101.11811       -4.70352
C         68.60368      102.64239       -4.51976
C         67.34001      103.16004       -3.97632
O         67.25261      104.45086       -3.68102
O         66.47165      102.39830       -3.60318
H         66.04656      101.70262       -5.54112
H         68.43219      100.96568       -6.85971
H         69.61981      100.79137       -4.75231
H         68.13962      100.65282       -3.78061
H         68.88443      103.16686       -5.45492
H         69.34148      102.90419       -3.72779
N         67.03118       98.36901       -5.22490
C         66.92163       96.92748       -5.25743
H         65.94684       96.65833       -5.72044
H         67.72937       96.45546       -5.85353
H         66.94504       96.52836       -4.22384
H         66.33744       98.87939       -4.66560
Ca        67.18321      106.57367       -3.23491
O         68.14554      105.93879       -6.02954
H         68.28282      106.65853       -6.68911
H         67.51837      105.31895       -6.47759
O         70.20277      107.60855       -3.38717
H         70.26511      108.06854       -4.25920
H         71.14407      107.42567       -3.14623
O         68.04085      109.01357       -1.75174
H         68.10135      108.62006       -0.85272
H         67.24123      109.59304       -1.70110

Ca 1.0



