%chk=apoCaM-CA-Ng.loop4.water4.frame552.chk
%nprocshared=20
%mem=10GB
%nosave
#b3lyp/svp scf=(tight,noincore,xqc) Test 
#IOP(5/87=12) Density=Current Pop=(MK,readradii) iop(6/33=2) iop(6/42=6)

apoCaM-CA-Ng.loop4.water4.frame552 

   -3  1 
C         56.07064       20.96748       61.11697
C         55.59352       19.60973       60.69546
O         55.92209       18.63488       61.35426
H         56.67522       21.42183       60.30538
H         55.19619       21.61806       61.33199
H         56.69279       20.89923       62.03534
N         54.77783       19.48117       59.60717
C         54.22701       18.21995       59.10222
C         53.23913       17.54554       60.05695
O         52.68508       16.52177       59.68010
C         55.34991       17.25002       58.67737
C         56.24506       17.86152       57.64037
O         57.55673       18.00773       57.89353
O         55.79313       18.21523       56.56277
H         54.53259       20.33791       59.08700
H         53.63546       18.45575       58.18909
H         54.91130       16.32436       58.24816
H         55.95709       16.95651       59.55353
N         52.94516       18.05412       61.28802
C         51.95422       17.46856       62.18598
C         50.55842       17.69998       61.62292
O         50.32129       18.78954       61.11902
C         52.10781       18.00259       63.64889
C         51.93602       19.54423       63.78883
C         53.46425       17.52240       64.20802
C         52.00657       20.03657       65.23684
H         53.42012       18.90158       61.60016
H         52.15045       16.38470       62.26307
H         51.31518       17.51544       64.25921
H         50.94235       19.83652       63.39175
H         52.71172       20.09625       63.22108
H         53.54025       16.41812       64.11892
H         54.31204       17.97887       63.65540
H         53.56944       17.75320       65.28549
H         53.00804       19.85637       65.67824
H         51.83254       21.13300       65.26238
H         51.23260       19.53652       65.85544
N         49.54817       16.78083       61.67469
C         49.60189       15.47529       62.33023
C         50.52546       14.50164       61.63057
O         51.39415       13.94299       62.28683
C         48.19853       14.82840       62.37643
C         47.20982       15.67399       63.12952
O         47.42655       15.98034       64.42289
O         46.20005       16.07748       62.57480
H         48.64320       17.07284       61.27136
H         49.92950       15.61012       63.38609
H         48.26480       13.84355       62.89030
H         47.82649       14.65353       61.34245
N         50.37580       14.21722       60.30546
C         51.13725       13.16918       59.65225
C         50.56260       11.82598       60.03312
O         49.42186       11.56141       59.67986
H         49.68914       14.74499       59.74626
H         52.21549       13.27257       59.90549
H         51.04103       13.25979       58.54921
N         51.27355       10.94157       60.78387
C         50.75076        9.64077       61.19441
C         50.36965        9.63076       62.66667
O         50.05719        8.56392       63.17819
C         51.73477        8.51509       60.78671
C         53.13742        8.66387       61.31467
O         53.38483        8.61483       62.63293
O         54.07062        8.78720       60.53733
H         52.20642       11.22162       61.12454
H         49.80014        9.40346       60.66860
H         51.78432        8.50204       59.67633
H         51.33540        7.52916       61.11152
N         50.27376       10.78490       63.39679
C         49.86581       10.79061       64.79228
C         50.90598       10.17124       65.69814
O         50.63196       10.01149       66.87786
H         50.45233       11.69525       62.95475
H         48.89741       10.25410       64.88513
H         49.71160       11.83790       65.13543
N         52.14458        9.85158       65.22535
C         53.23954        9.32800       66.02264
C         53.61482       10.33309       67.09312
O         53.83443        9.96644       68.23961
C         52.93855        7.90281       66.54099
C         52.68496        6.92972       65.37164
C         52.37975        5.51837       65.80873
N         52.15436        4.56374       64.87605
O         52.33207        5.22636       66.99494
H         52.37482       10.05404       64.24726
H         54.12820        9.25876       65.35455
H         52.05197        7.92129       67.20995
H         53.81121        7.53467       67.12321
H         53.58820        6.90301       64.72475
H         51.82525        7.28823       64.76727
H         52.19187        4.79141       63.87115
H         51.94376        3.59443       65.15642
N         53.69032       11.65305       66.75462
C         54.10910       12.71601       67.65687
C         55.24295       13.53271       67.05752
O         55.69283       14.45085       67.72792
C         52.92656       13.66843       67.99307
C         52.35239       14.37449       66.75006
C         51.81791       12.92748       68.74525
H         53.41803       11.92277       65.79727
H         54.47993       12.28468       68.61376
H         53.30897       14.45527       68.68188
H         51.90954       13.64636       66.03942
H         51.56123       15.09152       67.05337
H         53.14256       14.95154       66.22494
H         52.22762       12.46094       69.66671
H         51.02006       13.64006       69.04338
H         51.37043       12.13884       68.11022
N         55.75448       13.27862       65.81308
C         56.79266       14.10494       65.22016
C         58.09964       13.33177       65.27572
O         58.10761       12.15839       65.61356
C         56.37967       14.47492       63.76515
C         57.13656       15.60857       63.10008
N         57.05062       15.78116       61.76180
O         57.78629       16.40488       63.75847
H         55.44020       12.46700       65.26527
H         56.90956       15.03402       65.81775
H         55.31143       14.77694       63.73524
H         56.47073       13.55557       63.14566
H         56.49374       15.13855       61.18041
H         57.55862       16.55280       61.30324
N         59.26040       13.97223       65.00337
C         60.58014       13.34496       65.01555
C         61.66339       14.41553       64.91521
O         61.33785       15.58809       64.81066
C         60.66258       12.25113       63.91952
C         60.09153       12.67578       62.57963
C         60.68052       13.69678       61.81729
C         58.93715       12.03594       62.08488
C         60.12433       14.07043       60.58684
C         58.38324       12.41180       60.85949
C         58.97280       13.42852       60.10539
O         58.42468       13.77809       58.92389
H         59.18812       14.96768       64.80466
H         60.74935       12.86732       66.00519
H         60.06576       11.38812       64.28424
H         61.69915       11.87156       63.80702
H         61.56830       14.20070       62.17120
H         58.45594       11.24640       62.64955
H         60.58785       14.85816       60.00769
H         57.49311       11.91127       60.49713
H         58.79866       14.47551       58.36721
N         62.98770       14.09299       65.01002
C         64.01083       15.13165       65.04542
C         64.89494       15.04402       63.81187
O         65.73702       14.15967       63.76437
C         64.84135       15.06419       66.34448
C         63.95959       15.14856       67.60223
C         64.79671       15.23230       68.84652
O         65.58073       14.33959       69.12687
O         64.67972       16.29631       69.66439
H         63.27291       13.10670       65.08758
H         63.55227       16.13412       65.09384
H         65.55036       15.92287       66.34208
H         65.42873       14.12089       66.38128
H         63.30686       14.25059       67.66571
H         63.31214       16.05049       67.54795
N         64.81248       15.93004       62.77056
C         63.75522       16.92000       62.59477
C         64.27328       18.30025       62.93634
O         65.22748       18.75283       62.31869
C         63.20565       16.86647       61.15370
C         61.97312       17.77916       61.00522
C         61.45572       17.90018       59.60201
O         61.98478       17.31755       58.66812
O         60.42718       18.73840       59.37674
H         65.52302       15.86273       62.02446
H         62.88910       16.68381       63.23139
H         62.90602       15.82565       60.90315
H         64.00693       17.17734       60.44750
H         62.23964       18.80845       61.32323
H         61.15643       17.40623       61.66185
N         63.66354       19.03251       63.91171
C         64.07303       20.37009       64.28697
H         64.94357       20.72813       63.69897
H         63.22718       21.07069       64.12232
H         64.34372       20.38249       65.36320
H         62.85574       18.63250       64.41296
Ca        59.86812       19.46360       57.31684
O         57.69036       21.01665       55.52853
H         57.01519       20.71279       56.18583
H         57.17347       21.18515       54.70103
O         62.55248       19.86989       56.17190
H         62.75016       18.98147       56.56161
H         62.40905       19.69125       55.20875
O         60.74128       21.53614       60.02027
H         60.49082       20.96786       60.79176
H         61.72162       21.64675       60.10312
O         59.39766       17.89000       54.93539
H         58.60503       18.43948       54.71114
H         60.01367       18.01626       54.17098

Ca 1.0



