%chk=apoCaM-CA-Ng.loop3.water5.frame103.chk
%nprocshared=20
%mem=10GB
%nosave
#b3lyp/svp scf=(tight,noincore,xqc) Test 
#IOP(5/87=12) Density=Current Pop=(MK,readradii) iop(6/33=2) iop(6/42=6)

apoCaM-CA-Ng.loop3.water5.frame103 

   0  1 
C         49.15207       72.16480       85.97531
C         50.29799       72.99870       85.48576
O         50.06554       73.96205       84.77185
H         48.18473       72.56448       85.60155
H         49.26982       71.12337       85.60858
H         49.13447       72.16351       87.08477
N         51.57855       72.66973       85.83206
C         52.77926       73.38956       85.40501
C         53.07119       73.23737       83.90638
O         54.06157       73.78733       83.44832
C         52.71785       74.86256       85.88191
C         54.01210       75.59768       85.66726
O         54.03865       76.60893       84.98398
O         55.14743       75.14934       86.23670
H         51.71511       71.85765       86.45382
H         53.64488       72.91922       85.92323
H         52.50936       74.87162       86.97385
H         51.90041       75.41061       85.37007
N         52.29646       72.46018       83.09456
C         52.57019       72.22544       81.68033
C         51.43917       72.75030       80.81047
O         51.47804       72.50691       79.61025
C         52.75266       70.70053       81.46578
C         53.95431       70.10767       82.22881
C         55.30244       70.60567       81.67375
C         56.52004       69.98725       82.37929
N         56.62737       70.41300       83.77614
H         51.48075       71.96745       83.48021
H         53.48324       72.75174       81.33845
H         52.88063       70.46922       80.38535
H         51.82845       70.18420       81.80985
H         53.92572       69.00203       82.11023
H         53.85021       70.33725       83.30900
H         55.38462       71.70835       81.74861
H         55.35435       70.32526       80.59860
H         57.43290       70.32243       81.83811
H         56.47748       68.87713       82.31991
H         57.51369       70.03180       84.17881
H         56.65686       71.45731       83.83227
H         55.82823       70.04814       84.34020
N         50.40968       73.48650       81.32510
C         49.26369       73.92294       80.53921
C         49.18013       75.44312       80.51317
O         49.84080       76.10134       81.30815
C         48.02951       73.25416       81.17493
C         46.75552       73.29986       80.38546
O         46.08660       74.44361       80.16380
O         46.26178       72.25078       80.00241
H         50.40351       73.72834       82.32455
H         49.37354       73.56514       79.49234
H         47.85705       73.66333       82.19387
H         48.28101       72.17596       81.29795
N         48.42776       76.07604       79.56879
C         48.33397       77.52407       79.45268
C         47.55085       78.19618       80.57039
O         47.50275       79.41544       80.56973
H         47.95664       75.50404       78.85577
H         47.82474       77.78302       78.49974
H         49.36281       77.94626       79.40883
N         46.92603       77.48180       81.55533
C         46.23120       78.11675       82.68143
C         45.88391       77.17594       83.84883
O         45.49716       77.71029       84.88266
C         44.97029       78.90169       82.23016
C         43.86006       78.05945       81.64472
N         42.69420       78.64925       81.29227
O         43.99765       76.85442       81.49108
H         47.01024       76.47153       81.51052
H         46.95095       78.84422       83.11811
H         45.24028       79.67663       81.48425
H         44.55990       79.43612       83.11460
H         42.55653       79.66252       81.42300
H         41.92167       78.09596       80.89679
N         46.01690       75.81398       83.81905
C         45.81761       74.97648       84.99034
C         44.39856       74.96688       85.49977
O         43.51986       75.57519       84.90475
H         46.31893       75.31480       82.97813
H         46.49811       75.32785       85.79511
H         46.08832       73.92707       84.74295
N         44.11558       74.27200       86.63770
C         42.77963       74.21822       87.21731
C         41.96206       73.11559       86.56666
O         42.46821       72.43211       85.68693
C         42.85576       74.04137       88.75142
C         43.71812       75.09007       89.42432
C         43.49057       76.46369       89.21679
C         44.75935       74.69578       90.28298
C         44.29595       77.41829       89.84550
C         45.55228       75.65296       90.92324
C         45.32477       77.01849       90.70351
O         46.08322       77.95243       91.31237
H         44.88755       73.79312       87.12707
H         42.26009       75.18167       87.02543
H         43.23840       73.02417       88.98975
H         41.83394       74.12458       89.17581
H         42.69830       76.80298       88.56345
H         44.95133       73.64664       90.47005
H         44.11675       78.47144       89.66825
H         46.34207       75.33160       91.59063
H         46.79765       77.71824       91.92197
N         40.66755       72.90553       86.94374
C         39.79478       71.92049       86.31585
C         38.66685       72.68912       85.64960
O         38.56437       72.62008       84.43566
C         39.29861       70.86383       87.34857
C         40.46381       70.17855       88.11595
C         38.41315       69.79123       86.68254
C         41.40116       69.31807       87.25835
H         40.26711       73.49591       87.68669
H         40.34270       71.36872       85.52032
H         38.68620       71.39053       88.11299
H         40.03149       69.52193       88.90280
H         41.06898       70.95301       88.63321
H         38.05285       69.06287       87.43976
H         37.52912       70.23350       86.20572
H         38.96045       69.24741       85.88600
H         41.89259       69.91842       86.46828
H         42.19180       68.88335       87.90498
H         40.85765       68.47129       86.79139
N         37.83126       73.50701       86.36227
C         36.84057       74.37020       85.71378
C         35.71165       73.60388       85.03348
O         34.97790       74.22041       84.27440
C         36.26226       75.39065       86.70333
O         37.30257       76.16433       87.23719
H         37.96274       73.57988       87.38250
H         37.37720       74.94708       84.92587
H         35.72853       74.86064       87.52251
H         35.55128       76.05413       86.15868
H         36.87237       76.91964       87.71552
N         35.53853       72.26131       85.21389
C         34.60828       71.43576       84.44907
C         34.93140       71.58660       82.97096
O         34.06454       71.93123       82.17835
C         33.14995       71.77079       84.79591
H         36.13972       71.77513       85.88253
H         34.77810       70.37325       84.73488
H         32.46366       71.08960       84.24922
H         32.98171       71.63333       85.88548
H         32.89530       72.81678       84.52853
N         36.22533       71.44669       82.56751
C         36.70582       71.82256       81.24650
C         37.71121       70.82237       80.72522
O         38.59300       70.41957       81.47242
C         37.39541       73.18562       81.34548
H         36.92851       71.21132       83.28303
H         35.86765       71.95620       80.52765
H         37.73622       73.51190       80.33978
H         36.68054       73.94271       81.73282
H         38.27654       73.14754       82.01645
N         37.69578       70.45893       79.41061
C         38.70080       69.60960       78.77437
C         38.64291       68.15923       79.23790
O         39.46210       67.37859       78.77221
C         40.13030       70.19816       78.92526
C         40.21901       71.64402       78.40853
C         41.62833       72.15683       78.46096
O         42.51093       71.60025       77.82748
O         41.92195       73.23734       79.20657
H         36.96766       70.86019       78.80022
H         38.48397       69.58725       77.68304
H         40.82934       69.56656       78.33381
H         40.47410       70.16552       79.98071
H         39.57392       72.30088       79.03104
H         39.86647       71.69355       77.35731
N         37.68802       67.70617       80.10343
C         37.59380       66.32516       80.53216
H         37.66486       66.27912       81.63846
H         36.61305       65.91136       80.21646
H         38.39519       65.68829       80.10256
H         36.96905       68.34378       80.46941
Ca        44.03154       74.01383       79.35483
O         44.72086       73.17853       76.42348
H         45.17761       73.65808       75.68800
H         43.86645       73.66515       76.54064
O         43.40762       73.43759       82.24903
H         42.55552       73.05212       81.92415
H         43.17179       74.35933       82.52095
O         45.94960       75.93804       77.27360
H         46.63724       75.32279       76.91472
H         45.61363       76.42033       76.47790
O         40.82403       75.67381       80.05998
H         40.16037       74.94453       79.97358
H         40.50401       76.20190       80.83226
O         43.09184       76.90647       77.85804
H         43.39718       77.52078       77.14396
H         42.33219       77.37888       78.28150

Ca 1.0



