%chk=apoCaM-CA-Ng.loop1.water3.frame1081.chk
%nprocshared=20
%mem=10GB
%nosave
#b3lyp/svp scf=(tight,noincore,xqc) Test 
#IOP(5/87=12) Density=Current Pop=(MK,readradii) iop(6/33=2) iop(6/42=6)

apoCaM-CA-Ng.loop1.water3.frame1081 

   0  1 
C         36.55276       53.50924       29.41412
C         36.65980       53.93548       30.84614
O         36.10800       54.96811       31.19939
H         35.99714       54.26436       28.81764
H         37.57223       53.40228       28.98593
H         36.02372       52.53650       29.35355
N         37.35827       53.16643       31.73141
C         37.54719       53.50638       33.14298
C         38.70656       54.48786       33.35377
O         39.57226       54.23706       34.18253
C         37.72519       52.21095       33.98033
C         38.93463       51.37219       33.61845
O         39.15432       50.21818       34.27467
O         39.71619       51.71675       32.74445
H         37.71641       52.26599       31.38143
H         36.61896       53.98776       33.51267
H         36.81955       51.58163       33.84656
H         37.79600       52.47842       35.05734
N         38.79359       55.63250       32.62530
C         39.85615       56.61168       32.78164
C         39.70659       57.31592       34.12557
O         40.67118       57.27503       34.87658
C         39.93405       57.53710       31.54019
C         40.25518       56.68238       30.28723
C         40.23842       57.47930       28.98147
C         40.53845       56.54723       27.79291
N         40.45707       57.26281       26.52124
H         38.09579       55.81934       31.90518
H         40.83886       56.08270       32.78084
H         40.74745       58.28350       31.67629
H         38.98479       58.08513       31.38845
H         39.50341       55.87289       30.17692
H         41.25287       56.20546       30.41707
H         40.99439       58.29271       29.02123
H         39.22948       57.92649       28.84806
H         39.80626       55.70772       27.77782
H         41.55738       56.11432       27.90909
H         39.48262       57.61239       26.37171
H         41.12838       58.06402       26.51296
H         40.70094       56.60598       25.74451
N         38.55318       57.89416       34.59360
C         37.27370       58.03091       33.89206
C         36.23456       57.03904       34.37954
O         36.49967       56.27271       35.29201
C         36.77085       59.49050       33.96734
C         36.92418       60.18499       35.30975
O         36.29663       59.84573       36.46614
O         37.69503       61.12927       35.34972
H         38.57928       58.22486       35.57071
H         37.38296       57.77747       32.82503
H         35.73424       59.57690       33.59154
H         37.40875       60.06164       33.25542
N         35.05145       56.92052       33.70284
C         34.07696       55.87902       33.98847
C         33.23878       56.16273       35.20087
O         33.25820       57.27271       35.70118
H         34.88763       57.51424       32.87583
H         34.60074       54.90818       34.08992
H         33.36327       55.79208       33.14221
N         32.45623       55.17666       35.72357
C         31.56631       55.36937       36.86802
C         30.21284       54.70533       36.59419
O         30.14364       53.86597       35.70714
C         32.26666       54.84315       38.14517
C         33.49474       55.68721       38.37827
O         34.60934       55.19497       38.30833
O         33.34753       57.02486       38.50822
H         32.53603       54.23316       35.31506
H         31.39279       56.45233       37.00325
H         32.53771       53.77215       38.00877
H         31.62258       54.91710       39.04022
N         29.06631       55.00974       37.27461
C         28.94818       56.02043       38.30968
C         29.14990       57.42966       37.79733
O         29.26757       57.65128       36.59962
H         28.20978       54.48390       37.03783
H         29.65954       55.80221       39.12454
H         27.92695       55.98050       38.74903
N         29.19120       58.44612       38.69848
C         29.35476       59.85387       38.34461
C         30.64526       60.13278       37.56488
O         31.61862       59.40438       37.68762
C         29.21438       60.72304       39.62426
C         29.46490       62.20922       39.39094
O         30.09078       60.26883       40.62337
H         29.07496       58.19428       39.69267
H         28.51245       60.12331       37.66888
H         28.16004       60.58998       39.96892
H         29.65069       60.44160       41.49779
H         30.52737       62.37049       39.10607
H         28.80111       62.60815       38.59881
H         29.26467       62.75883       40.33401
N         30.64729       61.16653       36.66722
C         31.72420       61.55845       35.75905
C         32.91225       62.17123       36.48447
O         33.52917       61.52843       37.32192
C         32.13052       60.43636       34.75839
C         30.86224       59.93549       34.01449
C         33.18330       60.97823       33.76555
C         31.12397       58.93920       32.88419
H         29.77843       61.71379       36.57696
H         31.30288       62.36405       35.11697
H         32.59368       59.59101       35.30152
H         30.31673       60.79887       33.57532
H         30.19440       59.44433       34.75327
H         32.77419       61.83006       33.18208
H         34.09507       61.31835       34.29961
H         33.51562       60.18787       33.06373
H         31.67683       59.42514       32.05300
H         31.69115       58.05967       33.25041
H         30.15192       58.59925       32.46861
N         33.32338       63.42485       36.12364
C         34.50787       64.08266       36.66416
C         34.33141       64.53737       38.10201
O         35.29406       65.04182       38.66459
C         34.87212       65.33628       35.80309
C         33.86736       66.49564       35.96022
O         34.94510       64.99227       34.44320
H         32.81342       63.89753       35.36300
H         35.35448       63.36498       36.58934
H         35.85943       65.73861       36.12907
H         35.71772       64.37964       34.33883
H         33.84223       66.86254       37.00905
H         34.17446       67.35215       35.32393
H         32.84091       66.19101       35.67100
N         33.10885       64.52592       38.71109
C         32.86609       65.23731       39.95828
C         33.69289       64.65776       41.08259
O         33.41871       63.54787       41.51717
C         31.35224       65.23015       40.30135
C         31.00414       66.03729       41.55437
O         30.59059       65.69747       39.21413
H         32.30193       64.11518       38.22149
H         33.16613       66.29569       39.78864
H         31.05602       64.18200       40.49240
H         30.92022       66.60423       38.98004
H         29.90973       65.97600       41.73745
H         31.52617       65.62718       42.44332
H         31.28684       67.10208       41.41949
N         34.74772       65.36528       41.58490
C         35.57177       64.91621       42.69704
C         36.14116       63.54467       42.39733
O         35.81885       62.59103       43.09376
C         34.77239       65.00363       44.02082
C         34.30725       66.45491       44.24956
C         33.64686       66.67440       45.61307
C         33.20331       68.14172       45.74448
N         32.65127       68.41764       47.06914
H         34.98936       66.27158       41.15657
H         36.43240       65.61186       42.81672
H         35.44252       64.70068       44.85535
H         33.89255       64.32373       44.01169
H         33.59037       66.73943       43.44884
H         35.19075       67.12820       44.18847
H         34.38172       66.43521       46.41249
H         32.76334       66.00854       45.72385
H         32.43515       68.36277       44.96942
H         34.07295       68.81546       45.57267
H         31.84569       67.78193       47.26802
H         33.39328       68.29157       47.79554
H         32.31865       69.40896       47.09824
N         37.00051       63.38172       41.34730
C         37.50941       62.07756       40.93785
C         37.16956       61.80825       39.47667
O         36.36715       60.91090       39.26084
C         39.00546       61.89000       41.27639
C         39.24089       61.96715       42.79176
C         40.68918       61.76302       43.12622
O         41.24852       60.71794       42.83421
O         41.37633       62.73174       43.76089
H         37.28839       64.21840       40.82023
H         36.98912       61.28273       41.51928
H         39.65579       62.63831       40.79533
H         39.32273       60.88623       40.91682
H         38.63950       61.18665       43.30670
H         38.92233       62.96356       43.16712
N         37.68941       62.46507       38.39438
C         38.66503       63.53508       38.37168
H         39.58604       63.16881       37.86577
H         38.26286       64.38470       37.78318
H         38.92921       63.92952       39.35896
H         37.37218       62.15476       37.46944
Ca        34.77932       58.49946       37.51270
O         37.37677       57.14616       38.15400
H         36.62869       56.89799       37.56284
H         37.36847       56.43139       38.83600
O         35.63180       58.03204       40.67501
H         35.54177       57.04815       40.60964
H         36.09041       58.18312       41.53928
O         33.42659       60.19170       40.19431
H         32.48080       59.90676       40.17704
H         33.39175       61.14125       40.46853

Ca 1.0



