%chk=apoCaM-CA-Ng.loop1.water1.frame927.chk
%nprocshared=20
%mem=10GB
%nosave
#b3lyp/svp scf=(tight,noincore,xqc) Test 
#IOP(5/87=12) Density=Current Pop=(MK,readradii) iop(6/33=2) iop(6/42=6)

apoCaM-CA-Ng.loop1.water1.frame927 

   0  1 
C         13.96361       28.62710       97.80966
C         14.73175       27.34024       97.74796
O         14.83516       26.76508       96.67767
H         13.10305       28.50455       98.50177
H         14.61745       29.44258       98.18097
H         13.57231       28.90278       96.80704
N         15.28673       26.82990       98.88338
C         16.00098       25.54957       98.97120
C         15.10730       24.32934       98.58199
O         13.75113       24.67529       98.65608
C         16.59952       25.34095      100.38363
C         15.59541       25.29860      101.51085
O         15.48758       24.19594      102.27103
O         14.91540       26.27397      101.78411
H         15.18755       27.40227       99.73252
H         16.88123       25.58308       98.29024
H         17.32414       26.15798      100.59366
H         17.16992       24.38555      100.37711
N         15.47734       23.78011       97.25695
C         14.52180       22.81247       96.66372
C         14.55125       21.45447       97.34937
O         15.46407       21.18932       98.11966
C         14.87903       22.61674       95.16341
C         16.28481       22.00002       94.98542
C         16.74926       21.99710       93.52606
C         18.13338       21.33681       93.41133
N         18.64506       21.40883       92.04394
H         15.59609       24.57217       96.59110
H         13.49501       23.23461       96.72228
H         14.84683       23.61098       94.66563
H         14.12810       21.96988       94.65955
H         16.27693       20.95747       95.37235
H         17.02689       22.58689       95.56912
H         16.81216       23.04944       93.17132
H         16.02259       21.44571       92.89107
H         18.05871       20.27074       93.72346
H         18.85264       21.84805       94.08995
H         18.77234       22.40884       91.76458
H         19.57326       20.92854       92.00210
H         17.98659       20.93616       91.38373
N         13.57802       20.53044       97.07738
C         13.61094       19.14816       97.56579
C         13.27950       18.17033       96.43685
O         12.82176       18.61386       95.39271
C         12.58071       18.95864       98.69913
C         12.89411       19.86340       99.84862
O         12.03454       20.83654      100.19294
O         13.96903       19.77795      100.41887
H         12.77548       20.82764       96.50063
H         14.62815       18.93619       97.95149
H         12.58595       17.91485       99.07259
H         11.56258       19.18461       98.31201
N         13.43180       16.81601       96.55047
C         14.15029       16.14909       97.62298
C         14.92248       14.98076       97.06269
O         15.63357       15.15671       96.08199
H         13.14016       16.23240       95.75370
H         13.44900       15.82006       98.41847
H         14.90531       16.82401       98.06503
N         14.86759       13.76020       97.66189
C         15.60920       12.61463       97.15447
C         14.86924       12.02804       95.96706
O         13.74396       11.57858       96.14311
C         15.77740       11.56043       98.27440
C         16.62945       10.37393       97.89528
O         16.85625        9.41075       98.80825
O         17.12909       10.27468       96.78530
H         14.33128       13.66409       98.53835
H         16.63683       12.94467       96.87812
H         14.77962       11.19578       98.60139
H         16.26745       12.05096       99.14389
N         15.44197       11.97296       94.72966
C         14.78766       11.32070       93.60510
C         13.49590       11.97982       93.15925
O         12.78456       11.35885       92.38395
H         16.39406       12.34517       94.59460
H         14.56353       10.27505       93.91107
H         15.47251       11.27455       92.73136
N         13.13145       13.22835       93.57548
C         11.85479       13.84962       93.22068
C         11.09596       14.20346       94.49206
O         11.59201       13.93965       95.57852
C         12.07169       15.04341       92.25779
C         12.88382       16.19489       92.84768
O         12.71484       14.57142       91.10073
H         13.77479       13.76762       94.17155
H         11.21442       13.13042       92.66508
H         11.06638       15.44192       91.98402
H         12.37149       15.10146       90.33424
H         12.98532       17.00163       92.09110
H         12.35314       16.61789       93.71903
H         13.90072       15.86299       93.14230
N          9.85950       14.77808       94.43466
C          9.06488       15.00063       95.63630
C          8.61448       13.63038       96.11318
O          8.94125       13.24338       97.22754
C          7.85807       15.96635       95.38745
C          8.29047       17.42558       95.05010
C          6.97954       16.04357       96.65548
C          9.00170       17.62844       93.71319
H          9.44908       14.99501       93.51690
H          9.69184       15.48829       96.41760
H          7.21931       15.57684       94.56473
H          8.93219       17.83061       95.86400
H          7.37337       18.05287       94.99758
H          6.11432       16.72103       96.48968
H          6.56432       15.04995       96.92255
H          7.56753       16.42806       97.51746
H          9.17205       18.71389       93.55238
H          9.99701       17.15090       93.69861
H          8.37337       17.24441       92.88146
N          7.89444       12.82787       95.27918
C          7.48219       11.46703       95.60099
C          5.96743       11.37795       95.55977
O          5.35395       12.12074       94.80135
C          8.13048       10.48559       94.58736
C          9.66701       10.58081       94.58859
O          7.73092        9.16177       94.83982
H          7.65177       13.18903       94.34216
H          7.81912       11.18458       96.62280
H          7.78785       10.75108       93.56212
H          8.10019        8.89969       95.72340
H         10.09544        9.87502       93.84578
H          9.99681       11.60230       94.31192
H         10.07553       10.33672       95.59218
N          5.29339       10.46420       96.32100
C          3.83480       10.34632       96.30074
C          3.18262       10.38794       97.68432
O          1.96235       10.42076       97.71922
C          3.41448        9.05318       95.55848
C          3.83597        7.77128       96.28946
O          3.97116        9.06446       94.26928
H          5.84368        9.80566       96.89329
H          3.40370       11.19596       95.72544
H          2.30104        9.05795       95.47982
H          3.40928        8.46980       93.70661
H          3.49693        6.88326       95.71694
H          4.93769        7.71569       96.40631
H          3.35646        7.72557       97.28619
N          3.89604       10.34764       98.85530
C          3.24851       10.24402      100.16929
C          4.27959       10.32094      101.28615
O          5.25455        9.58385      101.24143
C          2.42833        8.92224      100.30180
C          3.28526        7.64339      100.31909
C          2.43250        6.37362      100.23056
C          3.33235        5.12967      100.27541
N          2.55553        3.90530      100.09275
H          4.92293       10.35957       98.81898
H          2.53252       11.08792      100.28038
H          1.69851        8.85600       99.47174
H          1.83328        8.95003      101.24137
H          3.87106        7.60468      101.26140
H          3.98763        7.65546       99.46146
H          1.86959        6.38671       99.27161
H          1.70606        6.33704      101.07238
H          3.86121        5.09150      101.25452
H          4.09570        5.19373       99.46815
H          1.83734        3.81403      100.84700
H          2.08906        3.91703       99.15652
H          3.20171        3.08408      100.13504
N          4.09919       11.15895      102.34880
C          4.99431       11.16015      103.50464
C          5.75775       12.46536      103.75448
O          6.75827       12.36834      104.45256
C          4.21461       10.75590      104.77127
C          3.56064        9.37121      104.63203
C          2.80791        9.00634      105.87896
O          1.60761        8.78885      105.83061
O          3.45504        8.90656      107.05597
H          3.24656       11.73162      102.37576
H          5.78835       10.39515      103.35444
H          3.42780       11.51733      104.97069
H          4.91132       10.73466      105.63857
H          4.34242        8.60318      104.44848
H          2.85782        9.36986      103.77016
N          5.42656       13.71360      103.30571
C          4.24971       14.07081      102.55046
H          3.33865       13.81873      103.13404
H          4.23789       15.16809      102.37905
H          4.25670       13.58014      101.55667
H          6.05354       14.49222      103.56360
Ca        12.70955       22.88566       99.57917
O         15.74090       21.37114      102.12124
H         16.15829       20.99260      101.30761
H         16.48830       21.81320      102.59630

Ca 1.0



