%chk=apoCaM-CA-Ng.loop1.water5.frame511.chk
%nprocshared=20
%mem=10GB
%nosave
#b3lyp/svp scf=(tight,noincore,xqc) Test 
#IOP(5/87=12) Density=Current Pop=(MK,readradii) iop(6/33=2) iop(6/42=6)

apoCaM-CA-Ng.loop1.water5.frame511 

   0  1 
C         63.12941       80.65105       27.17778
C         62.05676       81.61378       26.76409
O         61.66079       81.60853       25.60752
H         64.00987       81.21302       27.55482
H         62.74613       79.99143       27.98421
H         63.44802       80.02157       26.31979
N         61.54012       82.48307       27.67872
C         60.50540       83.47582       27.39358
C         59.17750       82.78649       27.03910
O         59.11968       81.56449       27.05390
C         61.02595       84.47398       26.32370
C         60.40005       85.84949       26.34229
O         59.55836       86.23438       27.32189
O         60.74045       86.66712       25.50280
H         61.91436       82.45373       28.64041
H         60.35196       84.04389       28.33832
H         60.93006       84.01869       25.31584
H         62.10587       84.66421       26.51224
N         58.05019       83.50720       26.77349
C         56.71737       82.93967       26.58148
C         56.26027       82.18818       27.82586
O         55.53513       81.20997       27.70942
C         56.59675       82.06992       25.30926
C         56.95403       82.83014       24.02327
C         56.52360       82.06461       22.75817
C         57.22694       80.71183       22.56364
N         56.71535       80.03579       21.37036
H         58.09914       84.52931       26.76617
H         56.01318       83.79370       26.46179
H         55.53475       81.74845       25.23096
H         57.22811       81.16182       25.40128
H         58.04200       83.05941       23.99965
H         56.39520       83.79099       24.01601
H         56.73482       82.70353       21.87341
H         55.42460       81.89954       22.80561
H         57.05009       80.05185       23.43901
H         58.32223       80.87555       22.46006
H         57.21766       79.12754       21.24511
H         55.69347       79.83945       21.48352
H         56.86563       80.62867       20.52216
N         56.64147       82.61827       29.06207
C         56.27218       81.96027       30.31410
C         56.87557       82.77124       31.46213
O         58.08660       82.94480       31.43890
C         56.80200       80.50527       30.35260
C         56.39345       79.80028       31.61272
O         57.24155       79.35877       32.36935
O         55.08844       79.63665       31.90436
H         57.22997       83.46456       29.11149
H         55.17060       81.92835       30.35548
H         57.90998       80.50424       30.25439
H         56.39080       79.91066       29.51313
N         56.16275       83.35838       32.47094
C         54.74435       83.19951       32.75199
C         54.58091       82.81782       34.20172
O         53.92258       83.53436       34.94194
H         56.68514       83.96602       33.12143
H         54.26299       82.42362       32.13566
H         54.22811       84.16619       32.56986
N         55.22711       81.72513       34.68779
C         55.24077       81.35694       36.09691
C         56.42860       80.41102       36.39102
O         56.80303       79.41723       35.46502
C         53.86435       80.88710       36.64263
C         53.13564       79.81936       35.87613
O         53.49743       79.47470       34.76690
O         51.99846       79.30742       36.38466
H         55.81338       81.18826       34.03270
H         55.50728       82.26238       36.68567
H         53.16914       81.75193       36.68053
H         54.01145       80.54649       37.69007
N         56.71027       80.10571       37.80160
C         58.03517       79.49721       38.03846
C         59.23531       80.38385       37.70443
O         60.01312       80.68516       38.59884
H         56.64754       80.98771       38.36254
H         58.11390       78.54513       37.47610
H         58.08687       79.23128       39.11804
N         59.46695       80.79954       36.42752
C         60.62226       81.56064       35.96987
C         61.22653       80.81922       34.78373
O         60.51498       80.59314       33.81383
C         60.19646       83.00878       35.61064
C         59.01850       83.10206       34.63166
O         59.82610       83.68505       36.78424
H         58.80007       80.54469       35.69808
H         61.38841       81.64247       36.77287
H         61.06269       83.53121       35.14021
H         60.66532       83.98442       37.22259
H         59.24686       82.61031       33.67042
H         58.10199       82.64723       35.06458
H         58.79628       84.16816       34.42027
N         62.50521       80.33998       34.81241
C         63.02468       79.45747       33.76502
C         63.15187       78.02589       34.27685
O         63.49929       77.15563       33.49318
C         64.34343       79.97870       33.12907
C         65.54745       79.92862       34.10258
C         64.12808       81.38799       32.54664
C         66.88633       80.13845       33.38771
H         63.09168       80.52647       35.64095
H         62.29194       79.38827       32.93087
H         64.57084       79.29055       32.28358
H         65.60598       78.91964       34.56316
H         65.42565       80.67385       34.91702
H         63.27138       81.38365       31.83939
H         63.91502       82.11847       33.35644
H         65.01614       81.73460       31.98223
H         67.01917       79.36574       32.59852
H         66.95727       81.14278       32.92625
H         67.71789       80.03467       34.11541
N         62.83042       77.70315       35.56545
C         62.81715       76.34401       36.08678
C         63.74537       76.21829       37.28186
O         64.41347       77.17492       37.64604
C         61.35329       75.93318       36.41039
C         60.65627       76.85542       37.41762
O         60.60686       75.92090       35.22384
H         62.53634       78.43830       36.21838
H         63.19129       75.62238       35.32846
H         61.32357       74.91234       36.84920
H         60.86672       75.10174       34.72565
H         61.21470       76.88843       38.37615
H         60.55485       77.88407       37.01611
H         59.63154       76.47756       37.61778
N         63.83611       75.02297       37.92776
C         64.74285       74.75139       39.03108
C         65.60510       73.56146       38.62943
O         66.81965       73.69471       38.56689
C         63.92494       74.54118       40.33480
C         64.82572       74.35423       41.55906
O         63.04867       73.45061       40.21618
H         63.23553       74.25146       37.61105
H         65.40411       75.62796       39.21525
H         63.32924       75.47284       40.48872
H         62.33312       73.57483       40.89331
H         65.48813       75.23705       41.68477
H         64.19918       74.26050       42.47234
H         65.44652       73.43997       41.45831
N         65.01955       72.37440       38.30090
C         65.71868       71.18586       37.84098
C         65.13436       70.75277       36.50423
O         63.92049       70.62188       36.40357
C         65.51449       70.06993       38.88189
C         66.19563       68.75245       38.47359
C         65.92631       67.66086       39.51195
C         66.53145       66.32112       39.07577
N         66.22917       65.27476       40.05131
H         63.99621       72.29008       38.37487
H         66.81372       71.36315       37.74789
H         64.42448       69.88963       39.01528
H         65.93279       70.40835       39.85573
H         67.29123       68.91136       38.36329
H         65.78680       68.40983       37.49849
H         64.82700       67.53420       39.62342
H         66.35368       67.96492       40.49251
H         67.63433       66.42316       38.96932
H         66.10903       66.02873       38.08800
H         66.63837       64.37065       39.72281
H         66.64238       65.51924       40.98035
H         65.19330       65.16122       40.14533
N         65.94381       70.41264       35.46261
C         65.41357       69.84709       34.22546
C         64.68186       70.89791       33.39285
O         63.48859       70.71741       33.19505
C         66.49985       69.07007       33.44885
C         66.93220       67.81316       34.22752
C         67.98903       67.04868       33.48629
O         67.77912       65.90173       33.12467
O         69.18298       67.61836       33.23481
H         66.96581       70.45510       35.59913
H         64.65903       69.06975       34.49225
H         67.38774       69.69993       33.26193
H         66.08105       68.73679       32.47340
H         66.04394       67.15893       34.37908
H         67.33431       68.08812       35.22527
N         65.25382       72.02268       32.87072
C         66.64348       72.39574       33.00439
H         67.29397       71.67230       32.48137
H         66.81045       73.37866       32.51409
H         66.92142       72.48858       34.07326
H         64.64800       72.67037       32.34193
Ca        55.44101       77.77035       34.68912
O         53.98333       75.38132       34.07558
H         53.49871       75.09744       34.89068
H         54.34264       74.54358       33.69019
O         58.64537       77.54798       34.10453
H         59.24921       78.31969       34.23936
H         58.38280       77.27768       35.02025
O         55.88226       76.63767       37.11683
H         56.25503       75.78972       37.46211
H         55.81968       77.23558       37.90253
O         57.21541       75.03047       33.44597
H         57.82275       74.56146       34.07138
H         57.41863       74.63888       32.55958
O         55.54550       76.54841       31.41407
H         55.83461       76.95104       30.55702
H         54.61359       76.25685       31.25097

Ca 1.0



