%chk=apoCaM-CA-Ng.loop3.water2.frame561.chk
%nprocshared=20
%mem=10GB
%nosave
#b3lyp/svp scf=(tight,noincore,xqc) Test 
#IOP(5/87=12) Density=Current Pop=(MK,readradii) iop(6/33=2) iop(6/42=6)

apoCaM-CA-Ng.loop3.water2.frame561 

   0  1 
C         53.52249       10.90811       81.54512
C         52.83255        9.57609       81.43934
O         51.72331        9.43387       81.93204
H         54.51495       10.89340       81.04348
H         52.90370       11.68714       81.05205
H         53.67422       11.17417       82.61052
N         53.43038        8.55689       80.76940
C         52.81148        7.25530       80.54256
C         52.66040        6.48165       81.84944
O         53.65036        6.34812       82.55585
C         53.68645        6.48030       79.53185
C         52.98375        5.33123       78.88606
O         53.55810        4.69098       78.01974
O         51.69965        5.05295       79.17967
H         54.35490        8.74115       80.34733
H         51.82261        7.41758       80.06429
H         54.63504        6.14978       80.00825
H         53.94195        7.15827       78.69359
N         51.47074        5.90777       82.21843
C         51.31474        5.13754       83.45949
C         51.50276        3.63472       83.22599
O         51.48811        2.88042       84.18727
C         49.94612        5.46631       84.11433
C         49.86179        5.02789       85.59577
C         48.55296        5.43560       86.29665
C         47.35268        4.55883       85.90890
N         46.14055        4.99227       86.60565
H         50.67232        5.95674       81.56616
H         52.11195        5.45314       84.16727
H         49.13284        5.02043       83.50633
H         49.81879        6.57117       84.10318
H         50.68983        5.54681       86.12450
H         50.00162        3.93705       85.72734
H         48.34229        6.50925       86.09924
H         48.70002        5.30878       87.39104
H         47.56944        3.50023       86.17635
H         47.17640        4.60524       84.82410
H         46.28290        4.95399       87.64120
H         45.89354        5.96772       86.31977
H         45.34986        4.35681       86.35106
N         51.73176        3.13279       81.98010
C         51.98454        1.72968       81.68440
C         53.42197        1.57452       81.19445
O         54.17403        0.83662       81.81612
C         50.87603        1.16399       80.74492
C         50.45615        2.02455       79.56478
O         51.31003        2.29843       78.56658
O         49.32265        2.47461       79.51655
H         51.75915        3.77490       81.18497
H         51.92411        1.10837       82.60720
H         49.96845        1.05263       81.37885
H         51.16006        0.14539       80.40166
N         53.88705        2.26932       80.12314
C         55.25447        2.22016       79.63009
C         55.34056        1.64007       78.23217
O         56.43737        1.60579       77.69256
H         53.24683        2.89035       79.63541
H         55.90458        1.60603       80.28926
H         55.65825        3.25607       79.62747
N         54.24870        1.10995       77.60639
C         54.29592        0.41244       76.32517
C         53.30785        1.00892       75.33503
O         52.54781        1.88507       75.70492
C         53.91256       -1.05486       76.60142
C         54.86922       -1.67977       77.58809
N         54.45160       -2.04663       78.82365
O         56.03942       -1.83602       77.27398
H         53.34324        1.10939       78.08981
H         55.31405        0.46358       75.88160
H         53.90350       -1.65850       75.67044
H         52.88093       -1.06847       77.02332
H         53.47517       -1.90189       79.12057
H         55.11385       -2.45854       79.49775
N         53.23702        0.54958       74.05339
C         52.19934        0.96072       73.11530
C         52.19182        2.44710       72.83324
O         53.17091        2.95785       72.30787
H         53.90888       -0.16928       73.74468
H         51.21674        0.65127       73.53024
H         52.33945        0.42277       72.15293
N         51.10073        3.20173       73.16789
C         51.00001        4.63695       72.93175
C         51.05743        5.39696       74.28503
O         52.06162        4.86218       75.08376
C         49.66794        4.97419       72.21891
C         49.54144        4.44709       70.81027
C         48.54769        3.50618       70.48830
C         50.37497        4.93738       69.79063
C         48.38993        3.06572       69.17026
C         50.21045        4.50057       68.47127
C         49.21451        3.56425       68.15679
O         49.03482        3.14424       66.88778
H         50.31594        2.74579       73.65266
H         51.85878        4.98124       72.31618
H         49.53250        6.07516       72.15451
H         48.83780        4.58406       72.84595
H         47.88651        3.11951       71.25368
H         51.13581        5.67520       70.01205
H         47.61683        2.34488       68.93425
H         50.84943        4.89840       67.69275
H         49.57027        3.47712       66.15334
N         51.21506        6.85783       74.06110
C         52.03513        7.71721       74.95005
C         51.42266        7.88991       76.32935
O         51.38664        6.94310       77.09697
C         53.55130        7.32236       75.06633
C         54.38216        8.37443       75.85628
C         54.19422        7.04119       73.69838
C         54.47977        9.76049       75.21350
H         51.50199        7.06207       73.07491
H         52.01672        8.70938       74.45271
H         53.64941        6.39449       75.66148
H         55.41504        7.98337       75.98679
H         53.95246        8.50381       76.86986
H         54.12689        7.92256       73.02943
H         55.26121        6.76087       73.83029
H         53.69687        6.18557       73.20130
H         54.96140        9.70505       74.21670
H         53.48395       10.23696       75.12118
H         55.10448       10.41329       75.85855
N         51.00092        9.12451       76.72965
C         50.62378        9.47383       78.10061
C         49.36398        8.79291       78.63556
O         48.99912        9.09920       79.76346
C         50.44699       11.00269       78.21126
O         51.63618       11.66118       77.85586
H         51.05130        9.88807       76.03870
H         51.47024        9.21263       78.76597
H         50.20933       11.29043       79.25809
H         49.59097       11.34096       77.58058
H         51.50998       12.03153       76.94367
N         48.65461        7.86364       77.93220
C         47.41009        7.28137       78.41934
C         47.62402        5.85822       78.89791
O         48.22635        5.08661       78.16741
C         46.35823        7.33357       77.31043
H         48.98405        7.55098       77.01120
H         47.01760        7.87954       79.24495
H         45.39431        6.91823       77.66915
H         46.19266        8.38578       76.99790
H         46.68242        6.74489       76.43006
N         47.15710        5.39046       80.09761
C         46.34455        6.14411       81.05699
C         45.02754        6.56396       80.41659
O         44.34866        5.68201       79.90772
C         46.02260        5.25901       82.26340
H         47.37190        4.40552       80.32423
H         46.93907        6.99161       81.44242
H         45.44722        5.82714       83.02634
H         45.43436        4.36493       81.96280
H         46.97098        4.91018       82.70442
N         44.56022        7.84891       80.36010
C         45.18254        9.03349       80.94494
C         44.94138       10.24869       80.06315
O         45.91202       10.84885       79.62073
C         44.81253        9.23981       82.43736
C         43.36574        9.60024       82.83435
C         42.35937        8.49195       82.67500
O         41.75502        7.98192       83.76527
O         42.03950        8.08180       81.57390
H         43.68191        7.98616       79.83921
H         46.27973        8.91405       80.96632
H         45.44303       10.08584       82.79209
H         45.12447        8.34292       83.01550
H         43.02519       10.51744       82.31376
H         43.39652        9.84750       83.91827
N         43.68019       10.64777       79.73129
C         43.40116       11.77756       78.86803
H         42.76813       12.50830       79.41242
H         44.32377       12.29467       78.53047
H         42.85191       11.42392       77.97015
H         42.86864       10.12068       80.08063
Ca        51.04169        3.73202       76.81109
O         48.35481        4.80499       75.43230
H         48.52200        5.77085       75.29297
H         47.43011        4.66295       75.11122
O         48.77194        1.74834       75.61794
H         47.98041        1.59564       76.19198
H         48.39457        1.89166       74.71380

Ca 1.0



