%chk=apoCaM-CA-Ng.loop2.water4.frame129.chk
%nprocshared=20
%mem=10GB
%nosave
#b3lyp/svp scf=(tight,noincore,xqc) Test 
#IOP(5/87=12) Density=Current Pop=(MK,readradii) iop(6/33=2) iop(6/42=6)

apoCaM-CA-Ng.loop2.water4.frame129 

   -2  1 
C         31.00576       49.92763        2.24161
C         30.29431       49.32479        1.06822
O         30.74119       49.50051       -0.05641
H         31.90358       50.49243        1.91140
H         30.32157       50.62363        2.77171
H         31.32121       49.12392        2.93898
N         29.15474       48.60602        1.26648
C         28.38073       48.00833        0.18348
C         27.01412       48.65790        0.03742
O         26.27235       48.23379       -0.83763
C         28.27599       46.47802        0.37419
C         27.50112       46.01690        1.58564
O         27.38544       44.82040        1.79619
O         26.91750       46.89007        2.42955
H         28.81397       48.49865        2.23371
H         28.89770       48.16797       -0.78843
H         29.30570       46.06329        0.43102
H         27.78598       46.04136       -0.52393
N         26.62027       49.70918        0.82214
C         25.34737       50.39803        0.66909
C         25.28128       51.05030       -0.70940
O         26.11753       51.90066       -0.98002
C         24.18014       49.45800        1.02145
H         27.24993       50.07438        1.55000
H         25.30049       51.22069        1.41529
H         24.30465       49.08216        2.05928
H         23.21822       50.01242        0.97282
H         24.12191       48.58100        0.34565
N         24.33442       50.71185       -1.63178
C         24.21731       51.32942       -2.95441
C         25.35731       50.97703       -3.92140
O         25.25749       51.37552       -5.07410
C         22.87022       50.91804       -3.59498
C         21.70108       51.32297       -2.73628
O         20.93042       50.47796       -2.31000
O         21.49832       52.61980       -2.43438
H         23.62635       50.01147       -1.37499
H         24.18906       52.43472       -2.83778
H         22.85710       49.81789       -3.75944
H         22.74919       51.42079       -4.57902
N         26.47030       50.27127       -3.55110
C         27.54284       49.90227       -4.46777
C         28.05341       51.08951       -5.24715
O         28.00186       51.04937       -6.46935
H         26.59294       49.97647       -2.57892
H         27.16026       49.14068       -5.18235
H         28.37490       49.44180       -3.89185
N         28.48281       52.21633       -4.61388
C         28.77568       53.43626       -5.36161
C         30.07001       53.33583       -6.15766
O         30.86442       52.42879       -5.95153
C         28.76519       54.68534       -4.44846
C         27.36954       55.00621       -3.86771
N         26.39234       55.25694       -4.92354
O         26.90959       53.98447       -3.03463
H         28.47762       52.23064       -3.58317
H         27.95763       53.57538       -6.10422
H         29.06977       55.57479       -5.04059
H         29.50151       54.56280       -3.62564
H         26.70352       56.08338       -5.48266
H         25.47933       55.50616       -4.48051
N         30.27942       54.22551       -7.16796
C         31.39401       54.18172       -8.09861
C         32.67717       54.72194       -7.52082
O         32.66687       55.83577       -7.01404
H         29.54494       54.92527       -7.35702
H         31.14899       54.86725       -8.93889
H         31.50445       53.16494       -8.53419
N         33.85319       54.04127       -7.66858
C         35.14175       54.63550       -7.30330
C         35.29907       54.85301       -5.80378
O         36.22150       55.55582       -5.41818
C         36.34903       53.85376       -7.88915
C         36.49946       52.42440       -7.34816
O         36.30299       53.85221       -9.29584
H         33.82692       53.13035       -8.14858
H         35.17388       55.64287       -7.77843
H         37.27433       54.40206       -7.60538
H         35.57109       53.24929       -9.58580
H         37.40477       51.95662       -7.79013
H         36.62086       52.43868       -6.24747
H         35.62166       51.79747       -7.60539
N         34.43091       54.30629       -4.90563
C         34.45210       54.61201       -3.47832
C         33.13989       55.28060       -3.10619
O         32.28691       55.46209       -3.96382
C         34.72252       53.33651       -2.61839
C         33.64005       52.24468       -2.81909
C         36.14193       52.80869       -2.88529
C         33.74118       51.10305       -1.80519
H         33.68601       53.68134       -5.24146
H         35.24979       55.34151       -3.23969
H         34.70554       53.63811       -1.55035
H         33.69566       51.82855       -3.84732
H         32.63515       52.69709       -2.67997
H         36.39762       51.97511       -2.20099
H         36.24402       52.45851       -3.93082
H         36.88615       53.61384       -2.70176
H         33.64704       51.50134       -0.77172
H         32.91426       50.38302       -1.97885
H         34.69727       50.55158       -1.90071
N         32.89906       55.63917       -1.81629
C         31.62898       56.17697       -1.37101
C         31.90020       57.42880       -0.55785
O         31.63123       57.43008        0.63137
C         30.91083       55.05260       -0.59014
C         29.49167       55.36343       -0.20279
O         28.77055       54.42065        0.43220
O         28.97669       56.43829       -0.46943
H         33.61220       55.45473       -1.09649
H         30.97246       56.43663       -2.23114
H         31.49602       54.78357        0.31599
H         30.86491       54.15567       -1.24710
N         32.43372       58.53488       -1.16466
C         32.77156       59.81112       -0.52087
C         32.87168       59.75037        1.00905
O         33.75502       59.06460        1.49818
C         34.07851       60.41091       -1.10006
C         35.29555       59.51058       -1.05907
C         36.29578       59.69766       -0.08825
C         35.47179       58.51084       -2.03452
C         37.43700       58.88754       -0.08321
C         36.62267       57.71755       -2.03489
C         37.60111       57.90080       -1.05785
H         32.53810       58.49553       -2.18936
H         31.98165       60.52281       -0.82431
H         34.28500       61.35578       -0.54875
H         33.92558       60.71303       -2.15923
H         36.19069       60.46520        0.66785
H         34.73633       58.36010       -2.81308
H         38.20006       59.02996        0.67067
H         36.76475       56.96614       -2.79814
H         38.48986       57.28282       -1.06272
N         32.02027       60.44177        1.83388
C         32.04811       60.40861        3.29480
C         32.08512       59.01916        3.91229
O         32.89864       58.78919        4.79589
C         30.73380       61.10057        3.68649
C         30.60221       62.13917        2.60419
C         30.98258       61.34045        1.36198
H         32.91812       61.00894        3.64613
H         29.87486       60.40338        3.55265
H         30.71156       61.48938        4.72694
H         29.61953       62.65244        2.54081
H         31.39255       62.90361        2.78868
H         30.14019       60.73272        0.96465
H         31.34209       62.06909        0.60384
N         31.21184       58.05159        3.50905
C         31.10737       56.73042        4.13658
C         32.38387       55.88878        4.06012
O         32.39791       54.82780        4.66989
C         29.95345       55.91724        3.50246
C         28.57322       56.57314        3.67442
C         27.50882       55.73682        3.02490
O         27.29988       54.47003        3.43229
O         26.82790       56.20132        2.12432
H         30.56514       58.29312        2.74562
H         30.87897       56.88506        5.21454
H         29.90966       54.91223        3.97808
H         30.17146       55.77891        2.42314
H         28.55482       57.58376        3.21734
H         28.34089       56.67544        4.75538
N         33.48250       56.27130        3.35002
C         34.70910       55.50210        3.28775
H         35.54467       56.11624        3.68554
H         34.65585       54.56360        3.87789
H         34.92720       55.24326        2.23071
H         33.46961       57.14297        2.81893
Ca        26.29655       55.00546       -1.09114
O         23.65050       55.01167       -2.38343
H         23.18674       54.68957       -1.57008
H         22.99860       55.61109       -2.82467
O         25.74848       57.90235       -1.90157
H         25.20719       57.75771       -2.71794
H         26.68650       57.81619       -2.20703
O         23.97177       56.54684        0.48119
H         24.18730       57.21434        1.17965
H         23.03497       56.28527        0.66673
O         24.25978       53.68109        1.51876
H         25.11334       54.08529        1.81374
H         23.92955       53.19448        2.31519

Ca 1.0



