%chk=apoCaM-CA-Ng.loop1.water3.frame739.chk
%nprocshared=20
%mem=10GB
%nosave
#b3lyp/svp scf=(tight,noincore,xqc) Test 
#IOP(5/87=12) Density=Current Pop=(MK,readradii) iop(6/33=2) iop(6/42=6)

apoCaM-CA-Ng.loop1.water3.frame739 

   0  1 
C        -12.56924       42.70649        7.14633
C        -11.86711       43.82098        6.42406
O        -12.51861       44.79481        6.07554
H        -13.37956       42.29680        6.50925
H        -11.87049       41.88358        7.40740
H        -13.00995       43.09906        8.08767
N        -10.52388       43.76024        6.19899
C         -9.76062       44.83618        5.57968
C         -8.96835       44.37700        4.36425
O         -8.09451       43.53722        4.49670
C         -8.88248       45.52677        6.64086
C         -7.90551       44.74258        7.50257
O         -7.30848       45.37608        8.35831
O         -7.64557       43.41384        7.42891
H        -10.01957       42.93874        6.54542
H        -10.45247       45.63102        5.22527
H         -9.58946       46.00135        7.35677
H         -8.31960       46.34536        6.14085
N         -9.21214       44.91412        3.12930
C         -8.43973       44.54390        1.94570
C         -6.99306       44.98075        2.11424
O         -6.74877       46.16086        2.32493
C         -9.03911       45.16551        0.66000
C         -8.31827       44.62737       -0.59639
C         -8.94996       45.06271       -1.92721
C         -8.82439       46.56651       -2.20796
N         -9.37203       46.89019       -3.52660
H         -9.97301       45.60316        3.02620
H         -8.50866       43.43948        1.82332
H         -8.98594       46.27473        0.70538
H        -10.10887       44.86804        0.59683
H         -8.36976       43.51684       -0.56822
H         -7.24581       44.92030       -0.58787
H        -10.01877       44.75722       -1.95113
H         -8.41809       44.51885       -2.73892
H         -7.75041       46.85666       -2.18091
H         -9.36838       47.14923       -1.43436
H         -8.85916       46.36191       -4.27025
H        -10.38892       46.64806       -3.56411
H         -9.25989       47.91400       -3.70578
N         -5.98268       44.07283        2.00034
C         -4.56380       44.41726        2.15887
C         -3.65396       43.25645        1.73328
O         -4.15509       42.15627        1.54439
C         -4.29658       44.81557        3.63781
C         -4.67686       43.73391        4.61468
O         -4.14756       42.63501        4.57060
O         -5.58572       43.99115        5.57020
H         -6.25297       43.10746        1.76436
H         -4.33998       45.26583        1.47886
H         -4.87302       45.72909        3.88926
H         -3.24038       45.06180        3.81514
N         -2.30118       43.36584        1.56236
C         -1.48186       44.57107        1.61596
C         -1.63820       45.45504        0.40067
O         -2.51503       45.23043       -0.41968
H         -1.79071       42.49453        1.34582
H         -0.42252       44.23440        1.57954
H         -1.58760       45.13524        2.55508
N         -0.74078       46.46342        0.20066
C         -0.66524       47.24913       -1.02773
C         -0.27349       46.33972       -2.18378
O          0.74265       45.66282       -2.09420
C          0.38573       48.37055       -0.87816
C          0.45040       49.24371       -2.10335
O          1.49143       49.34459       -2.73276
O         -0.63969       49.92407       -2.50765
H         -0.04154       46.64037        0.93916
H         -1.64890       47.73610       -1.21309
H          1.38637       47.92519       -0.67931
H          0.11554       49.01353       -0.01331
N         -1.02824       46.29197       -3.31499
C         -0.71054       45.44426       -4.45414
C         -1.03295       43.97716       -4.23700
O         -0.92349       43.22710       -5.19573
H         -1.84252       46.91962       -3.39638
H          0.34594       45.58946       -4.76826
H         -1.35775       45.76425       -5.30004
N         -1.49737       43.50283       -3.04362
C         -2.03384       42.16068       -2.86290
C         -1.24356       41.38747       -1.82229
O         -0.40721       41.95471       -1.13389
C         -3.51533       42.28902       -2.39827
C         -4.35054       43.16081       -3.34192
O         -4.11596       41.02392       -2.30270
H         -1.55150       44.12659       -2.23841
H         -1.98614       41.59856       -3.82070
H         -3.50997       42.77913       -1.39421
H         -4.87106       41.10819       -1.66298
H         -4.37303       42.71896       -4.35933
H         -5.38896       43.23817       -2.95448
H         -3.93891       44.19088       -3.39734
N         -1.50111       40.06027       -1.64895
C         -0.89562       39.24347       -0.60259
C          0.60667       39.20510       -0.82509
O          1.35142       39.59216        0.06531
C         -1.54142       37.81691       -0.54404
C         -3.09573       37.91812       -0.40533
C         -0.95056       37.03535        0.64747
C         -3.82313       36.57538       -0.32800
H         -2.16254       39.62351       -2.30093
H         -1.11205       39.72166        0.37997
H         -1.30675       37.26706       -1.48249
H         -3.52995       38.42285       -1.28864
H         -3.36213       38.52052        0.48964
H         -1.20041       37.54464        1.60401
H         -1.34193       35.99908        0.68346
H          0.15218       36.95350        0.56480
H         -4.91973       36.75752       -0.32024
H         -3.57672       35.94756       -1.21010
H         -3.57228       36.03319        0.60485
N          1.10703       38.84077       -2.03920
C          2.50933       39.00493       -2.41069
C          2.97508       37.86120       -3.29650
O          2.20115       37.37023       -4.10801
C          2.73762       40.39715       -3.04705
C          1.83644       40.68230       -4.25359
O          2.49960       41.37844       -2.06849
H          0.43213       38.60691       -2.78414
H          3.15132       38.98831       -1.50083
H          3.80599       40.44385       -3.36840
H          3.12321       42.13081       -2.24287
H          2.00403       39.94063       -5.05979
H          0.76624       40.66791       -3.95616
H          2.06098       41.69554       -4.64984
N          4.24533       37.37800       -3.17153
C          4.73740       36.19912       -3.87352
C          5.18011       35.18306       -2.83357
O          4.59200       34.11225       -2.77525
C          5.85153       36.57330       -4.88886
C          6.38395       35.33940       -5.63308
O          6.91358       37.23555       -4.25330
H          4.88756       37.84895       -2.51571
H          3.91751       35.73884       -4.47153
H          5.38743       37.26119       -5.63458
H          7.39082       37.75739       -4.95034
H          5.55910       34.82242       -6.16779
H          7.14652       35.64628       -6.38027
H          6.85963       34.62515       -4.92721
N          6.21470       35.45253       -1.98200
C          6.68492       34.52455       -0.96571
C          6.77591       35.23060        0.37634
O          7.51116       36.20412        0.47828
C          8.07943       34.00545       -1.35702
C          8.56394       32.93181       -0.37069
C          9.98698       32.47800       -0.69085
C         10.43064       31.38881        0.29340
N         11.81654       30.99681        0.04915
H          6.71861       36.34520       -2.06829
H          6.00760       33.64440       -0.89983
H          8.79716       34.85584       -1.38638
H          8.03381       33.55814       -2.37444
H          7.86904       32.06398       -0.41446
H          8.56072       33.33559        0.66507
H         10.66857       33.35306       -0.60583
H         10.03602       32.08305       -1.72900
H          9.76783       30.50118        0.18334
H         10.33973       31.76616        1.33681
H         11.92363       30.63722       -0.92683
H         12.44836       31.81750        0.19629
H         12.08050       30.24231        0.72294
N          6.08805       34.76988        1.45856
C          6.24738       35.33338        2.79792
C          5.04465       36.18877        3.18758
O          5.26884       37.37157        3.40646
C          6.62473       34.23167        3.81877
C          6.90770       34.80316        5.21813
C          7.32921       33.72203        6.17312
O          8.53768       33.77824        6.76529
O          6.57580       32.79566        6.42798
H          5.46072       33.96854        1.31826
H          7.11986       36.02694        2.79689
H          7.54544       33.72301        3.45409
H          5.83465       33.46246        3.90072
H          5.99639       35.29434        5.62112
H          7.71803       35.56122        5.14963
N          3.75207       35.75981        3.30037
C          3.24591       34.42236        3.08104
H          2.49945       34.44983        2.25992
H          4.01149       33.68682        2.81587
H          2.74801       34.06765        4.00647
H          3.04363       36.46270        3.56335
Ca        -8.09621       41.50718        6.26582
O         -4.95502       39.64039        6.08328
H         -4.22134       39.90062        6.69518
H         -4.57110       39.74806        5.17697
O         -7.51383       40.37126        3.43154
H         -8.40700       40.79902        3.42681
H         -7.08491       40.68339        2.59576
O         -4.97755       42.16318        8.19026
H         -5.29389       42.88148        8.79370
H         -4.17472       42.54269        7.75236

Ca 1.0



