%chk=apoCaM-CA-Ng.loop1.water3.frame52.chk
%nprocshared=20
%mem=10GB
%nosave
#b3lyp/svp scf=(tight,noincore,xqc) Test 
#IOP(5/87=12) Density=Current Pop=(MK,readradii) iop(6/33=2) iop(6/42=6)

apoCaM-CA-Ng.loop1.water3.frame52 

   0  1 
C         69.93866       75.29870       66.23322
C         69.18752       76.44111       66.85028
O         68.64355       77.26190       66.12534
H         70.99887       75.32682       66.55973
H         69.48342       74.33865       66.55783
H         69.90034       75.35149       65.12424
N         69.10316       76.53774       68.20550
C         68.35960       77.58355       68.89842
C         69.24286       78.39081       69.84573
O         68.70194       79.09618       70.68449
C         67.12840       76.97215       69.60728
C         67.42768       75.99625       70.70616
O         68.00847       74.94875       70.47380
O         66.98879       76.25343       71.95273
H         69.57155       75.81544       68.77294
H         67.93869       78.31157       68.17421
H         66.48945       76.46795       68.84966
H         66.53564       77.79756       70.04960
N         70.60454       78.39030       69.73235
C         71.49860       79.16975       70.58731
C         72.22530       80.21929       69.75785
O         72.85711       79.83233       68.78380
C         72.57899       78.26198       71.21636
C         72.14451       77.42583       72.42570
C         71.01408       76.42591       72.17691
C         70.81368       75.56479       73.43396
N         69.70403       74.63020       73.27358
H         71.04236       77.84073       68.97808
H         70.94668       79.65347       71.40283
H         73.38926       78.91420       71.61570
H         73.03405       77.61732       70.43159
H         71.84185       78.11191       73.24765
H         73.04739       76.86746       72.75873
H         71.26634       75.76952       71.31601
H         70.07708       76.97511       71.95835
H         70.61026       76.21967       74.31110
H         71.74669       74.99214       73.63354
H         69.64183       74.02501       74.12348
H         68.81162       75.16155       73.18523
H         69.85146       74.02763       72.43201
N         72.28362       81.55209       70.07644
C         71.62078       82.25204       71.17927
C         71.94299       81.66953       72.55693
O         71.02154       81.27775       73.26173
C         70.09658       82.36916       70.93498
C         69.72967       83.11721       69.68258
O         68.43178       83.34028       69.41537
O         70.58070       83.54449       68.91859
H         72.87833       82.14367       69.47382
H         71.99270       83.30043       71.19577
H         69.64966       82.92605       71.78441
H         69.62078       81.37588       70.89696
N         73.20410       81.61017       73.06630
C         74.38980       82.06252       72.35549
C         75.64621       81.99944       73.21958
O         75.56143       81.63078       74.38243
H         73.29571       81.23432       74.02206
H         74.23407       83.10866       72.03726
H         74.53145       81.42496       71.45890
N         76.88178       82.32208       72.73802
C         77.14956       82.71819       71.36004
C         76.54393       84.06398       70.96529
O         76.57573       84.35873       69.77853
C         78.66908       82.68619       71.04907
C         79.49681       83.68499       71.82258
O         79.58989       83.61612       73.16430
O         80.13215       84.53925       71.22601
H         77.67503       82.19341       73.38261
H         76.69341       81.94163       70.70776
H         78.80781       82.87335       69.96101
H         79.06184       81.66738       71.25891
N         75.99268       84.93477       71.86880
C         75.38974       86.20194       71.46304
C         73.97361       86.38497       71.97909
O         73.48932       85.58153       72.76334
H         76.02288       84.71653       72.87525
H         75.37024       86.29925       70.35739
H         76.00227       87.03859       71.86247
N         73.26674       87.48385       71.58015
C         71.95451       87.87417       72.11157
C         70.85924       86.81958       71.93693
O         71.07354       85.81466       71.27545
C         71.51065       89.23846       71.51109
C         71.26746       89.16803       69.99358
O         72.49503       90.20262       71.78665
H         73.73301       88.11346       70.90967
H         72.08606       88.01241       73.20788
H         70.56026       89.54419       72.00456
H         72.07886       91.09292       71.64384
H         72.18680       88.88071       69.44291
H         70.47091       88.43425       69.76332
H         70.93853       90.15982       69.61795
N         69.66461       86.98308       72.58801
C         68.59005       85.98879       72.62696
C         67.26874       86.63281       72.20996
O         66.90679       87.64661       72.79221
C         68.46996       85.42206       74.07538
C         69.84069       84.87834       74.56646
C         67.38465       84.32603       74.12753
C         69.82787       84.37889       76.01210
H         69.54221       87.82485       73.17188
H         68.82241       85.13719       71.95317
H         68.17005       86.24990       74.75716
H         70.58982       85.69795       74.53202
H         70.19323       84.06161       73.90165
H         66.40259       84.72360       73.79976
H         67.66156       83.47370       73.47054
H         67.23462       83.95398       75.15966
H         69.17603       83.49074       76.12966
H         70.85601       84.07863       76.30506
H         69.48645       85.18554       76.69540
N         66.48143       86.07999       71.23578
C         65.22035       86.68137       70.78391
C         63.98783       85.79042       70.97841
O         62.91201       86.24750       70.61814
C         65.34224       87.10706       69.29859
C         65.54882       85.92330       68.34136
O         66.40485       88.01451       69.17053
H         66.80159       85.21083       70.78534
H         65.01489       87.60998       71.36094
H         64.39272       87.62135       69.01731
H         66.27290       88.49514       68.31169
H         64.70474       85.20955       68.41029
H         65.59922       86.28982       67.29508
H         66.48919       85.38408       68.56275
N         64.04091       84.53253       71.51922
C         62.87552       83.64281       71.67286
C         62.31275       83.23894       70.30332
O         62.78432       83.74881       69.29630
C         61.78654       84.27909       72.59932
C         62.35527       84.76105       73.94159
O         60.72832       83.38702       72.84182
H         64.94826       84.16535       71.83842
H         63.23684       82.70951       72.15972
H         61.34891       85.16661       72.09928
H         61.09598       82.61072       73.34088
H         62.79693       83.91392       74.50723
H         63.13232       85.53786       73.78615
H         61.53992       85.20959       74.54975
N         61.31437       82.30894       70.17423
C         60.76329       81.94959       68.86575
C         61.77997       81.28974       67.94544
O         61.49369       81.16885       66.76162
C         59.53448       81.00963       68.97011
C         59.85268       79.62609       69.58175
C         58.67604       78.65644       69.38806
C         58.95167       77.24802       69.94467
N         59.02156       77.23203       71.40649
H         60.92031       81.87057       71.01596
H         60.42283       82.89555       68.38793
H         59.14904       80.86017       67.93646
H         58.72656       81.49558       69.55846
H         60.10024       79.74930       70.65487
H         60.72658       79.17388       69.07000
H         58.50561       78.55067       68.29329
H         57.74954       79.06409       69.84546
H         59.89311       76.84058       69.51168
H         58.11865       76.58252       69.62670
H         58.12844       77.59930       71.80869
H         59.15110       76.24567       71.72847
H         59.82792       77.79874       71.75032
N         62.94305       80.76263       68.42187
C         63.86571       80.01800       67.57506
C         63.16735       78.78518       67.02885
O         62.74217       77.94649       67.81252
C         65.10077       79.57285       68.38047
C         65.95336       80.74214       68.89876
C         66.58555       81.51208       67.77783
O         66.31998       82.82197       67.62487
O         67.36275       80.95996       67.01553
H         63.15402       80.84480       69.42617
H         64.20134       80.66727       66.73678
H         65.73688       78.92047       67.74466
H         64.75130       78.97506       69.25018
H         66.76513       80.34115       69.53747
H         65.34216       81.42095       69.52964
N         63.00548       78.62141       65.68634
C         62.33297       77.48023       65.09796
H         61.45672       77.83237       64.51446
H         63.03172       76.95233       64.41646
H         61.97453       76.75705       65.86078
H         63.36656       79.34127       65.04278
Ca        67.40560       84.01171       66.03866
O         68.94183       86.24239       68.52040
H         69.83473       86.10868       68.92311
H         68.79677       87.21940       68.56355
O         70.34393       81.86719       66.16909
H         70.04679       80.92527       66.09946
H         71.14538       81.83088       66.74933
O         70.50428       85.43624       65.98341
H         71.44389       85.41084       65.67258
H         70.29213       86.40112       66.05180

Ca 1.0



