%chk=apoCaM-CA-Ng.loop2.water4.frame1067.chk
%nprocshared=20
%mem=10GB
%nosave
#b3lyp/svp scf=(tight,noincore,xqc) Test 
#IOP(5/87=12) Density=Current Pop=(MK,readradii) iop(6/33=2) iop(6/42=6)

apoCaM-CA-Ng.loop2.water4.frame1067 

   -2  1 
C         36.84954       49.35380       34.60189
C         36.74571       50.24235       35.81807
O         35.87865       51.10401       35.79274
H         37.61541       48.56469       34.64119
H         35.87417       48.84063       34.45924
H         37.04985       49.97802       33.70661
N         37.51348       50.12799       36.94569
C         38.59121       49.17171       37.18970
C         39.87796       49.90413       37.60017
O         40.17827       50.90552       36.96650
C         38.06036       48.09507       38.16495
C         37.54033       48.65505       39.46826
O         36.35448       48.55867       39.74283
O         38.36844       49.24929       40.34398
H         37.27401       50.75532       37.72181
H         38.86387       48.64404       36.26318
H         38.82082       47.31265       38.35872
H         37.21029       47.59334       37.65019
N         40.71823       49.44652       38.58894
C         41.97782       50.09177       38.99070
C         41.77944       51.44562       39.66969
O         42.75829       52.13337       39.92447
C         42.95234       50.18771       37.80668
H         40.48871       48.57265       39.07865
H         42.47734       49.44454       39.74560
H         43.11397       49.17908       37.37159
H         42.58885       50.87128       37.01484
H         43.93521       50.57080       38.15619
N         40.54125       51.85878       40.04519
C         40.23269       53.13021       40.69343
C         39.65599       52.90929       42.08406
O         39.15906       51.83480       42.39326
C         39.25105       53.96991       39.81939
C         38.28341       53.10253       39.03819
O         38.28806       53.14658       37.81849
O         37.63427       52.10107       39.66016
H         39.76408       51.21563       39.88909
H         41.15931       53.72638       40.84580
H         39.84650       54.53039       39.06701
H         38.72215       54.72511       40.44218
N         39.76200       53.91062       43.00308
C         39.24559       53.83508       44.35753
C         37.75676       54.07762       44.40667
O         37.10771       53.58313       45.31613
H         40.26466       54.77268       42.74057
H         39.69586       54.66384       44.94566
H         39.55038       52.89039       44.86029
N         37.16427       54.92675       43.51860
C         35.74956       55.27966       43.57291
C         34.89149       54.00342       43.34518
O         34.70376       53.84543       41.97943
C         35.44874       56.35269       42.47804
C         36.21657       57.64350       42.61335
N         36.15187       58.56240       41.62115
O         36.91017       57.86097       43.59555
H         37.75334       55.36039       42.79165
H         35.53236       55.69904       44.57976
H         34.36627       56.59255       42.45067
H         35.73820       55.92835       41.48891
H         35.59302       58.38181       40.77326
H         36.67641       59.44671       41.68682
N         33.60797       54.01981       44.05156
C         32.73556       52.90661       43.63185
C         31.83762       52.46851       44.76023
O         32.04340       52.91360       45.88052
H         33.10710       54.92546       43.89273
H         33.32297       52.01505       43.31542
H         32.13291       53.24077       42.77443
N         30.82243       51.57124       44.58825
C         30.37805       51.02526       43.30243
C         29.79221       52.14082       42.44661
O         29.16833       53.03527       43.00273
C         29.29086       49.94326       43.55202
C         28.80687       49.26684       42.26234
O         29.81639       48.95593       44.40286
H         30.31041       51.28480       45.43806
H         31.23445       50.53452       42.78736
H         28.42015       50.44102       44.04426
H         29.05112       48.56547       44.90161
H         29.65263       48.75978       41.75087
H         28.03521       48.50645       42.50877
H         28.34473       49.99927       41.56964
N         29.89574       52.11763       41.08417
C         29.31288       53.14693       40.22381
C         28.18503       52.50745       39.42755
O         28.48679       51.64475       38.61283
C         30.39784       53.73477       39.26830
C         31.69328       54.15549       40.00115
C         29.83754       54.89498       38.42523
C         31.50097       55.24450       41.05068
H         30.37460       51.32022       40.63649
H         28.91471       53.97455       40.84171
H         30.71384       52.93364       38.56267
H         32.43332       54.51214       39.25173
H         32.14002       53.26357       40.48646
H         30.61912       55.28519       37.73925
H         28.98504       54.55109       37.80447
H         29.48338       55.72579       39.06979
H         32.47992       55.48260       41.51095
H         31.10462       56.15456       40.58053
H         30.80421       54.92616       41.85000
N         26.85882       52.78854       39.60633
C         26.29724       53.68809       40.61869
C         26.38431       55.16118       40.21172
O         26.81202       55.46219       39.10880
C         24.84457       53.26259       40.98036
C         23.82844       53.35876       39.86729
O         22.76518       54.17297       40.00298
O         23.91740       52.65946       38.87112
H         26.21198       52.21054       39.05389
H         26.86409       53.54669       41.56249
H         24.48675       53.88733       41.82484
H         24.86083       52.21330       41.34886
N         25.96713       56.13567       41.07828
C         25.95999       57.56586       40.76393
C         26.17277       58.38166       42.04509
O         25.43602       58.12993       42.98800
C         24.56648       57.95448       40.20489
C         24.55813       59.39688       39.74598
C         23.87782       60.38687       40.47782
C         25.26216       59.76530       38.58591
C         23.92184       61.72354       40.06423
C         25.29564       61.09993       38.17210
C         24.63105       62.07937       38.91367
H         25.56418       55.84017       41.97822
H         26.71826       57.79440       39.98677
H         23.80410       57.79129       41.00000
H         24.27732       57.31056       39.34627
H         23.33518       60.13149       41.37927
H         25.78992       59.01822       38.00649
H         23.41264       62.48627       40.63951
H         25.84374       61.37509       37.28029
H         24.66742       63.11403       38.59716
N         27.05143       59.43448       42.15783
C         27.89150       59.98564       41.10228
C         29.11988       59.16013       40.77934
O         29.28010       58.07147       41.31500
C         28.29353       61.37073       41.63680
C         27.14806       61.70362       42.57067
C         26.98444       60.36347       43.26923
H         27.27052       60.14670       40.20181
H         29.18305       61.27825       42.28859
H         28.51445       62.12461       40.85083
H         27.34777       62.55764       43.25160
H         26.23526       61.91493       41.96864
H         27.85766       60.18487       43.93768
H         26.04858       60.31392       43.86501
N         30.03563       59.64193       39.89158
C         31.22033       58.90579       39.46313
C         31.83059       59.56460       38.22339
O         33.00206       59.91182       38.23916
C         32.24706       58.70401       40.62765
C         32.88070       59.96870       41.24752
C         31.90454       60.80112       42.01569
O         31.70574       61.96430       41.70301
O         31.28093       60.27857       43.08932
H         29.84320       60.55636       39.45212
H         30.89730       57.89972       39.12236
H         33.07557       58.07932       40.22784
H         31.78553       58.12776       41.45450
H         33.38482       60.58452       40.47829
H         33.66040       59.64934       41.97066
N         31.11733       59.77488       37.07646
C         29.73502       59.39217       36.85431
H         29.12980       60.30342       36.66348
H         29.67863       58.73184       35.96511
H         29.28224       58.84020       37.69792
H         31.59217       60.24534       36.29048
Ca        36.33461       52.48098       41.37768
O         37.55803       48.43940       43.12229
H         37.27380       48.03982       43.98235
H         38.50953       48.67653       43.26033
O         33.92568       51.08773       40.52693
H         33.09709       50.54697       40.52111
H         34.18060       51.17076       39.57379
O         36.54219       50.88074       44.73560
H         37.38950       50.65007       45.19320
H         35.93779       51.17341       45.46357
O         34.42557       49.42814       43.12832
H         33.57217       49.12701       42.72721
H         34.51816       48.88551       43.95126

Ca 1.0



