%chk=apoCaM-CA-Ng.loop4.water3.frame218.chk
%nprocshared=20
%mem=10GB
%nosave
#b3lyp/svp scf=(tight,noincore,xqc) Test 
#IOP(5/87=12) Density=Current Pop=(MK,readradii) iop(6/33=2) iop(6/42=6)

apoCaM-CA-Ng.loop4.water3.frame218 

   -3  1 
C         35.59552       42.70178       78.59592
C         36.55620       43.84917       78.69718
O         37.55721       43.70015       79.37966
H         34.74022       42.94360       77.93213
H         36.12720       41.81907       78.17961
H         35.20804       42.44486       79.60402
N         36.33644       45.01221       78.01155
C         37.24872       46.15456       78.00115
C         38.60034       45.71073       77.45368
O         39.56648       45.66505       78.18262
C         37.22678       46.94686       79.34863
C         37.76924       46.21945       80.54355
O         39.07824       45.92338       80.58713
O         37.03023       45.87012       81.45050
H         35.49494       45.07933       77.41968
H         36.85570       46.90123       77.27564
H         36.16593       47.22271       79.54280
H         37.79789       47.89429       79.23496
N         38.69393       45.33604       76.14474
C         39.86508       44.81787       75.42294
C         41.01823       45.82807       75.34905
O         41.24978       46.36444       74.27478
C         40.30441       43.40323       75.90920
C         41.34622       42.75153       74.95451
C         39.09912       42.45953       76.08777
C         40.87872       42.53590       73.50751
H         37.82987       45.41645       75.58641
H         39.49494       44.68563       74.38561
H         40.77366       43.49663       76.91076
H         41.63279       41.76332       75.37332
H         42.25592       43.37672       74.90814
H         38.52654       42.34244       75.14581
H         39.43941       41.45923       76.43374
H         38.40991       42.85227       76.85980
H         40.67168       43.49785       72.99798
H         41.68589       42.03611       72.93295
H         39.97734       41.89267       73.46075
N         41.76805       46.15631       76.44095
C         42.74044       47.24081       76.45777
C         44.09350       46.85140       75.86197
O         44.56022       47.59569       75.01205
C         42.89458       47.80338       77.89272
C         43.70297       49.07231       77.92571
O         43.32086       50.05970       77.31733
O         44.83850       49.13428       78.64674
H         41.58676       45.68826       77.33009
H         42.30708       48.09430       75.88708
H         43.36155       47.06469       78.55908
H         41.88916       48.03662       78.30680
N         44.83424       45.76523       76.25242
C         44.32355       44.66527       77.05703
C         45.41049       43.75154       77.60243
O         46.31999       43.43353       76.84950
H         45.75488       45.63966       75.80310
H         43.70918       44.04460       76.38413
H         43.65347       45.01852       77.83259
N         45.37266       43.17958       78.85126
C         44.32025       43.32952       79.85898
C         42.95505       42.96441       79.25810
O         42.06982       43.80718       79.24478
C         44.41718       44.73360       80.50783
C         43.43709       44.93750       81.62784
O         43.50406       44.17059       82.73114
O         42.59896       45.82273       81.55765
H         46.13469       42.52453       79.08872
H         44.52328       42.61681       80.68915
H         44.28209       45.52786       79.76546
H         45.43838       44.86757       80.92368
N         42.69723       41.74781       78.68761
C         43.60225       40.61134       78.70423
C         44.20535       40.34320       77.35337
O         43.94240       41.06332       76.40026
H         41.79016       41.61004       78.21523
H         43.05378       39.71663       79.06737
H         44.44834       40.77537       79.39667
N         45.10627       39.33010       77.23421
C         45.92574       39.13854       76.04178
C         45.21144       38.27818       75.00545
O         45.67741       38.18987       73.87731
C         47.30384       38.60511       76.49220
C         48.49568       39.11121       75.66571
C         49.78864       38.83101       76.40111
N         50.01737       39.36651       77.62976
O         50.63927       38.12478       75.88338
H         45.31830       38.77623       78.07906
H         46.09376       40.15225       75.61218
H         47.29701       37.49879       76.61194
H         47.46573       39.02950       77.50150
H         48.42921       40.21595       75.55051
H         48.48935       38.65064       74.65513
H         49.32777       39.98308       78.08596
H         50.89228       39.17169       78.13746
N         44.03559       37.65580       75.32290
C         43.16586       36.95933       74.38312
C         42.93269       35.49798       74.75820
O         42.23925       34.82344       74.01163
C         41.80381       37.71450       74.29914
C         41.99433       39.09196       73.65491
C         41.11565       37.87721       75.67332
H         43.69822       37.71226       76.29145
H         43.62033       36.94600       73.36680
H         41.11894       37.13869       73.63852
H         42.67873       39.72510       74.25772
H         42.41911       38.97939       72.63488
H         41.01497       39.60553       73.56658
H         41.70082       38.53082       76.35469
H         40.12317       38.35834       75.55176
H         40.96901       36.89170       76.16277
N         43.47378       34.93487       75.87862
C         43.28754       33.53278       76.23646
C         42.58748       33.39808       77.57333
O         41.62812       32.64020       77.64803
C         44.64933       32.81457       76.29516
C         45.38150       32.87335       74.97650
N         44.84900       32.33051       73.85558
O         46.47629       33.41315       74.92338
H         44.06601       35.50231       76.49644
H         42.67071       32.99672       75.48130
H         44.49162       31.74487       76.56043
H         45.27798       33.27460       77.08869
H         43.93187       31.86179       73.87449
H         45.35901       32.37596       72.96079
N         43.02315       34.06901       78.68043
C         42.50689       33.80361       80.01823
C         41.73176       34.96462       80.61165
O         41.93170       36.11159       80.23693
C         43.69334       33.47821       80.94842
C         44.44623       32.24977       80.50879
C         43.82708       30.99253       80.57216
C         45.77192       32.34242       80.05026
C         44.52223       29.84354       80.18971
C         46.46365       31.19141       79.65966
C         45.84407       29.93896       79.73181
O         46.52685       28.83643       79.36390
H         43.79116       34.75101       78.58913
H         41.80753       32.93969       79.99323
H         43.34965       33.31620       81.99226
H         44.37216       34.36193       80.95615
H         42.80955       30.90220       80.93090
H         46.27022       33.30244       79.99061
H         44.03278       28.88037       80.25406
H         47.48379       31.27242       79.30533
H         46.13647       27.95189       79.41032
N         40.84478       34.68892       81.61429
C         40.09342       35.64284       82.42631
C         39.04967       36.47066       81.69040
O         38.34698       37.19898       82.37937
C         41.03509       36.56793       83.22619
C         42.05096       35.78167       84.06572
C         42.86135       36.70616       84.92604
O         43.54856       37.57852       84.41902
O         42.83445       36.57380       86.26601
H         40.72343       33.69786       81.87735
H         39.52027       35.04285       83.17053
H         40.41485       37.18138       83.91812
H         41.57170       37.25813       82.54037
H         42.73744       35.21687       83.40134
H         41.51416       35.05865       84.71780
N         38.85298       36.42580       80.33983
C         37.85817       37.25969       79.66642
C         36.76352       36.42584       79.01291
O         35.84585       37.02014       78.46370
C         38.54652       38.15131       78.60807
C         39.69712       39.03269       79.13357
C         39.26420       40.08512       80.11838
O         39.40509       41.26627       79.84642
O         38.76593       39.74229       81.31974
H         39.41981       35.79597       79.75632
H         37.33814       37.91887       80.39246
H         37.79076       38.80870       78.12272
H         38.97131       37.48587       77.82574
H         40.14553       39.54400       78.25373
H         40.48776       38.40339       79.59264
N         36.77392       35.05913       79.03488
C         35.73548       34.24584       78.43348
H         34.92730       34.85340       77.97501
H         36.18162       33.60442       77.64508
H         35.28325       33.59631       79.21189
H         37.54167       34.54889       79.49133
Ca        39.86121       43.97850       81.37462
O         37.70472       42.73473       82.86353
H         38.48346       42.50445       83.43052
H         37.82458       42.18942       82.04602
O         40.37573       44.94950       83.86947
H         39.46980       44.95285       84.26849
H         40.93018       44.42278       84.49684
O         41.72979       41.90487       82.05531
H         41.85471       42.20221       82.99114
H         41.77056       40.91791       82.09868

Ca 1.0



