%chk=apoCaM-CA-Ng.loop1.water5.frame507.chk
%nprocshared=20
%mem=10GB
%nosave
#b3lyp/svp scf=(tight,noincore,xqc) Test 
#IOP(5/87=12) Density=Current Pop=(MK,readradii) iop(6/33=2) iop(6/42=6)

apoCaM-CA-Ng.loop1.water5.frame507 

   0  1 
C         74.96819       72.89118       19.62447
C         74.91330       74.24816       18.98330
O         74.97335       74.34313       17.76660
H         75.85281       72.84148       20.29683
H         74.05193       72.71739       20.22552
H         75.06366       72.09010       18.86168
N         74.83870       75.35417       19.77516
C         74.89673       76.74289       19.32116
C         73.64558       77.16397       18.53597
O         72.91381       76.32025       18.03795
C         76.22438       76.97079       18.54212
C         76.75514       78.37897       18.45012
O         77.77437       78.58245       17.81044
O         76.20444       79.39785       19.13183
H         74.80735       75.20419       20.79628
H         74.91915       77.34656       20.25592
H         76.11448       76.55521       17.51763
H         77.03223       76.40181       19.05286
N         73.33041       78.48893       18.44001
C         72.20639       79.10012       17.72854
C         70.83076       78.81524       18.33262
O         69.86023       79.36110       17.82567
C         72.21030       78.78376       16.21121
C         73.57389       78.87746       15.49791
C         74.40035       80.12834       15.82900
C         75.70064       80.14435       15.01153
N         76.62607       81.15922       15.51344
H         73.94378       79.15658       18.91531
H         72.34518       80.20133       17.82088
H         71.50487       79.49596       15.72736
H         71.82136       77.75820       16.02736
H         73.38573       78.81861       14.40257
H         74.18234       77.99252       15.78460
H         74.66875       80.09148       16.90211
H         73.82562       81.06023       15.63946
H         75.45681       80.34143       13.94341
H         76.20438       79.15397       15.07674
H         76.17688       82.10262       15.51578
H         76.92357       80.90904       16.48517
H         77.47548       81.17915       14.90412
N         70.65769       77.97704       19.39396
C         69.35881       77.61295       19.95182
C         69.37564       77.89048       21.45728
O         70.32415       77.44655       22.08959
C         69.13696       76.12872       19.60003
C         67.82486       75.61683       20.08147
O         66.79494       76.22062       19.82379
O         67.76336       74.47051       20.77889
H         71.47591       77.51634       19.81108
H         68.55029       78.18329       19.45672
H         69.95410       75.49254       20.00569
H         69.14507       76.04120       18.49201
N         68.44861       78.64026       22.13900
C         67.16706       79.14782       21.65213
C         66.09268       78.84169       22.68541
O         66.22679       79.32343       23.80245
H         68.66791       78.84940       23.12672
H         66.89641       78.72584       20.66887
H         67.22166       80.25305       21.55679
N         65.03872       78.00874       22.41925
C         64.10601       77.56176       23.47118
C         64.44998       76.10928       23.87870
O         65.79942       75.97326       23.67941
C         62.63611       77.71199       23.02908
C         62.23710       76.86272       21.84274
O         63.10650       76.02173       21.24952
O         61.09501       76.92909       21.41833
H         64.98802       77.57646       21.48619
H         64.25313       78.18592       24.37950
H         62.45394       78.77853       22.77795
H         61.97269       77.43946       23.87755
N         64.13897       75.81879       25.29016
C         64.46960       74.42975       25.69589
C         65.80463       74.30699       26.43098
O         65.78775       74.05768       27.62875
H         63.10648       75.94628       25.39798
H         64.41999       73.71836       24.84428
H         63.68561       74.10254       26.41688
N         66.99836       74.43006       25.78114
C         68.31474       74.31934       26.39751
C         69.11039       73.22721       25.69100
O         68.59480       72.62208       24.75822
C         69.03161       75.69951       26.36132
C         69.28003       76.23892       24.94783
O         68.26467       76.64455       27.06340
H         67.00869       74.56675       24.77328
H         68.22078       74.03234       27.46795
H         70.03245       75.61298       26.84358
H         68.44212       76.50358       28.03023
H         69.91147       75.53881       24.36296
H         68.32752       76.41223       24.40779
H         69.80943       77.21398       25.01286
N         70.37484       72.90069       26.08265
C         71.13613       71.83002       25.43381
C         70.48910       70.44685       25.59263
O         70.94819       69.52571       24.93653
C         72.61434       71.76243       25.92057
C         72.70881       71.60622       27.46192
C         73.40991       72.98120       25.41761
C         74.07196       71.10032       27.92581
H         70.79879       73.44427       26.84695
H         71.15095       72.04159       24.33928
H         73.06857       70.86626       25.44138
H         71.96631       70.85898       27.81264
H         72.48591       72.57198       27.96436
H         74.48120       72.90236       25.69134
H         73.36035       73.03245       24.30788
H         73.00251       73.92727       25.83109
H         74.89225       71.78029       27.62432
H         74.07227       71.01808       29.03326
H         74.25451       70.08985       27.50081
N         69.42814       70.22675       26.42554
C         68.74809       68.93865       26.54438
C         68.77577       68.44135       27.97608
O         68.48667       69.20624       28.88205
C         67.28998       69.03401       26.02888
C         66.43906       70.12212       26.69464
O         67.30081       69.26766       24.64466
H         69.06743       70.99984       26.99671
H         69.23032       68.16516       25.90818
H         66.78471       68.05816       26.23334
H         67.40503       68.38316       24.20341
H         66.84556       71.13175       26.47874
H         65.40713       70.08004       26.28751
H         66.37788       69.97714       27.79131
N         69.07661       67.13197       28.23520
C         69.04004       66.54557       29.57263
C         69.55621       65.10761       29.52197
O         70.55563       64.82881       30.17091
C         67.60781       66.62987       30.19371
C         67.56250       66.08038       31.62348
O         66.67701       65.95085       29.39076
H         69.32852       66.52399       27.44193
H         69.72988       67.12957       30.22324
H         67.31088       67.69806       30.25928
H         65.77587       66.29319       29.62938
H         68.26767       66.64413       32.27039
H         66.53841       66.20273       32.03777
H         67.82359       65.00213       31.64647
N         68.91973       64.14356       28.79062
C         69.33705       62.74637       28.75675
C         69.53386       62.28068       27.32197
O         68.64672       62.47007       26.49972
C         68.27322       61.87316       29.45468
C         68.75267       60.41460       29.59800
C         67.70876       59.53127       30.29100
C         68.20553       58.09398       30.54640
N         68.58920       57.39700       29.31709
H         68.07418       64.39357       28.25835
H         70.27862       62.60469       29.33221
H         67.31442       61.91529       28.89239
H         68.09746       62.27835       30.47589
H         69.69394       60.40150       30.19134
H         68.95222       59.99925       28.59084
H         66.78841       59.50083       29.66855
H         67.45031       59.97574       31.27681
H         67.38246       57.53103       31.03897
H         69.07234       58.11022       31.24428
H         67.82153       57.44581       28.60916
H         69.46425       57.80969       28.92850
H         68.78654       56.39469       29.53944
N         70.63821       61.55891       26.98608
C         70.82288       60.94074       25.67637
C         71.21768       61.97409       24.62683
O         70.46776       62.11313       23.67098
C         71.79778       59.74341       25.77778
C         71.17932       58.62001       26.62821
C         72.16059       57.52540       26.92181
O         72.67350       56.88956       26.01571
O         72.47180       57.23552       28.20056
H         71.31727       61.34349       27.73247
H         69.85638       60.48806       25.34967
H         72.74351       60.05465       26.25253
H         72.01813       59.33581       24.76639
H         70.29282       58.19752       26.10455
H         70.84770       59.03554       27.59794
N         72.33255       62.76154       24.68871
C         73.31569       62.74288       25.74941
H         74.08311       63.52191       25.55736
H         72.84119       62.96330       26.72643
H         73.85278       61.77865       25.77229
H         72.48622       63.44056       23.92658
Ca        65.98215       74.42200       22.07930
O         64.74750       71.41874       20.10893
H         64.25697       70.60140       20.37544
H         65.67211       71.11011       19.93641
O         66.89978       71.74798       22.44544
H         67.85926       71.50634       22.44178
H         66.42290       70.88953       22.56450
O         63.22353       73.80943       19.22807
H         62.37131       73.84939       19.73051
H         63.14492       74.52120       18.54442
O         63.61256       72.26704       22.78513
H         64.04636       71.57034       23.33926
H         62.68124       71.95117       22.67325
O         66.33517       73.41475       18.42817
H         65.64091       73.09122       17.80202
H         66.94293       73.95924       17.86762

Ca 1.0



