%chk=apoCaM-CA-Ng.loop2.water4.frame729.chk
%nprocshared=20
%mem=10GB
%nosave
#b3lyp/svp scf=(tight,noincore,xqc) Test 
#IOP(5/87=12) Density=Current Pop=(MK,readradii) iop(6/33=2) iop(6/42=6)

apoCaM-CA-Ng.loop2.water4.frame729 

   -2  1 
C         77.01864       14.25037      -11.98390
C         77.80025       15.25144      -12.78261
O         77.32041       16.36346      -12.95179
H         76.04013       14.06790      -12.47658
H         77.55890       13.28477      -11.89947
H         76.83986       14.64901      -10.96291
N         79.01164       14.92727      -13.32284
C         79.79079       15.87538      -14.11294
C         80.21527       17.02666      -13.22058
O         81.00549       16.80562      -12.31164
C         81.01274       15.16766      -14.73789
C         81.77558       16.05187      -15.68616
O         82.36297       17.18144      -15.24756
O         81.88199       15.73666      -16.86072
H         79.37266       13.97033      -13.18509
H         79.14194       16.23379      -14.94346
H         80.64957       14.27846      -15.29984
H         81.69717       14.80564      -13.93923
N         79.67037       18.27047      -13.37496
C         79.95166       19.37641      -12.45398
C         79.58274       18.97618      -11.02305
O         78.95560       17.94003      -10.86721
C         79.14996       20.61438      -12.89790
H         78.99739       18.41610      -14.14399
H         81.04170       19.58828      -12.50102
H         79.31501       21.49807      -12.25514
H         79.43543       20.89318      -13.93461
H         78.06159       20.38790      -12.88253
N         79.94770       19.66644       -9.90205
C         80.72086       20.89836       -9.84850
C         82.06433       20.66239       -9.16873
O         82.12340       20.03811       -8.12014
C         79.91297       22.02748       -9.16521
C         79.55200       21.78820       -7.72192
O         80.00309       22.63133       -6.77367
O         78.81513       20.86875       -7.40428
H         79.66858       19.25577       -8.99940
H         80.93840       21.26930      -10.86566
H         78.97506       22.20094       -9.73641
H         80.51613       22.96023       -9.22175
N         83.18786       21.20269       -9.71534
C         84.53582       21.08545       -9.17072
C         85.50383       20.84780      -10.31009
O         85.41733       21.60339      -11.26924
H         83.06812       21.80640      -10.54337
H         84.60666       20.34529       -8.34823
H         84.80201       22.07755       -8.74906
N         86.48122       19.89707      -10.34453
C         86.87961       18.96363       -9.29058
C         85.76712       17.98635       -8.95266
O         85.19179       17.40268       -9.86105
C         88.14697       18.21390       -9.78549
C         88.84632       17.33900       -8.77495
N         89.98920       16.70505       -9.12899
O         88.41075       17.21135       -7.64101
H         87.04349       19.88633      -11.21217
H         87.17575       19.54336       -8.38844
H         88.89485       18.97908      -10.09316
H         87.89242       17.60311      -10.67972
H         90.37646       16.81315      -10.07890
H         90.49544       16.11346       -8.45409
N         85.43747       17.73050       -7.65165
C         84.34583       16.83852       -7.29599
C         84.31522       16.54162       -5.80937
O         85.20169       15.84905       -5.33178
H         85.98028       18.18124       -6.89907
H         84.45043       15.86429       -7.82283
H         83.39837       17.31050       -7.62994
N         83.32084       17.03684       -5.01755
C         83.17657       16.73407       -3.58809
C         81.76333       16.21644       -3.30450
O         80.98347       16.10445       -4.23962
C         83.54525       17.98230       -2.75134
C         85.04234       18.29371       -2.87763
O         82.80857       19.10240       -3.16443
H         82.63847       17.68267       -5.44202
H         83.87107       15.92096       -3.28298
H         83.37521       17.78723       -1.66797
H         81.94674       19.08030       -2.67466
H         85.30466       19.17405       -2.25429
H         85.64198       17.42766       -2.51963
H         85.32424       18.50950       -3.92970
N         81.36874       15.85555       -2.03775
C         80.05746       15.25895       -1.76027
C         79.18755       16.19891       -0.92778
O         79.48330       16.43296        0.23460
C         80.20250       13.87659       -1.04625
C         78.80236       13.25108       -0.77380
C         81.07974       12.91892       -1.87576
C         78.84113       11.98104        0.07794
H         82.02123       15.98078       -1.25091
H         79.53514       15.07197       -2.71551
H         80.71031       14.04732       -0.07039
H         78.28725       13.03774       -1.73559
H         78.17642       13.97067       -0.20572
H         80.60466       12.70077       -2.85586
H         82.08372       13.35740       -2.05276
H         81.24729       11.96420       -1.33708
H         79.32857       12.19079        1.05423
H         77.80146       11.64071        0.27212
H         79.37414       11.15627       -0.43398
N         78.06645       16.74483       -1.48424
C         77.07957       17.56194       -0.78453
C         75.63631       17.07544       -1.05830
O         74.72205       17.77890       -0.64903
C         77.29010       19.04833       -1.17128
C         77.22606       19.24975       -2.64585
O         78.33754       19.57556       -3.32046
O         76.21273       18.96632       -3.26160
H         77.91484       16.61286       -2.48821
H         77.23986       17.52516        0.31460
H         78.30430       19.34796       -0.82395
H         76.55082       19.70525       -0.66724
N         75.34142       15.88186       -1.67814
C         73.96817       15.38169       -1.85069
C         73.78176       14.69684       -3.21795
O         73.55578       13.49183       -3.24383
C         73.63831       14.41458       -0.68329
C         72.19876       13.92707       -0.71848
C         71.12874       14.83598       -0.60780
C         71.91269       12.55634       -0.86333
C         69.80549       14.38273       -0.64920
C         70.58744       12.10870       -0.90591
C         69.53509       13.02088       -0.79970
H         76.10945       15.23842       -1.91998
H         73.24069       16.21482       -1.76621
H         73.79810       14.93718        0.28422
H         74.34418       13.55508       -0.72000
H         71.31434       15.89540       -0.48912
H         72.71355       11.83311       -0.95092
H         68.98814       15.08782       -0.56519
H         70.37529       11.05354       -1.02275
H         68.51024       12.67248       -0.83316
N         73.82814       15.37348       -4.40844
C         73.58407       14.76488       -5.71741
C         74.56058       13.68214       -6.17026
O         74.40005       13.20456       -7.28329
C         73.66854       15.94768       -6.68720
C         73.16117       17.08322       -5.83092
C         73.89103       16.81465       -4.51651
H         72.54876       14.35206       -5.71043
H         74.73743       16.16891       -6.90689
H         73.13280       15.79138       -7.64895
H         73.31960       18.09632       -6.25374
H         72.06791       16.92672       -5.67471
H         74.95767       17.11004       -4.57779
H         73.36733       17.35625       -3.70304
N         75.57708       13.23425       -5.37596
C         76.51464       12.19574       -5.78035
C         76.19457       10.95124       -4.99327
O         75.91669        9.91906       -5.58992
C         77.98340       12.60456       -5.52403
C         78.38136       13.94888       -6.13546
C         77.79715       15.12938       -5.43922
O         77.87101       16.30156       -6.08046
O         77.63025       15.11090       -4.23273
H         75.68300       13.60639       -4.42953
H         76.41228       11.97705       -6.86740
H         78.63068       11.82188       -5.97711
H         78.21643       12.63413       -4.43745
H         78.13889       13.99291       -7.21625
H         79.48032       14.06994       -6.02092
N         76.17304       10.99096       -3.63259
C         75.80565        9.84994       -2.83108
H         74.77739        9.52432       -3.09716
H         76.52206        9.02041       -3.00164
H         75.82064       10.13016       -1.75632
H         76.39603       11.86990       -3.14092
Ca        78.47841       18.14748       -4.99985
O         76.02390       19.65230       -6.27683
H         75.07451       19.87492       -6.44277
H         76.00372       18.70877       -5.98087
O         80.60406       17.05999       -7.44118
H         80.91220       17.10691       -8.38097
H         80.82529       17.94750       -7.06290
O         77.43471       17.71479       -8.24406
H         76.59623       17.36832       -7.85252
H         77.35260       17.46262       -9.19194
O         80.84792       20.48455       -4.82877
H         81.12332       20.21629       -5.73981
H         81.51812       21.16105       -4.55811

Ca 1.0



