%chk=apoCaM-CA-Ng.loop1.water3.frame130.chk
%nprocshared=20
%mem=10GB
%nosave
#b3lyp/svp scf=(tight,noincore,xqc) Test 
#IOP(5/87=12) Density=Current Pop=(MK,readradii) iop(6/33=2) iop(6/42=6)

apoCaM-CA-Ng.loop1.water3.frame130 

   0  1 
C         38.58163       56.88298      -14.70153
C         37.62257       55.74915      -14.48204
O         38.05377       54.60682      -14.41696
H         39.62451       56.50944      -14.78934
H         38.31707       57.42006      -15.63680
H         38.52711       57.59070      -13.84792
N         36.28859       56.00313      -14.36889
C         35.27857       54.96651      -14.16448
C         34.32274       54.84722      -15.35242
O         33.41749       54.02888      -15.28222
C         34.53325       55.20759      -12.83030
C         33.70672       56.46778      -12.75030
O         33.61558       57.23710      -13.69373
O         33.04310       56.74196      -11.61136
H         35.97891       56.98401      -14.44120
H         35.76774       53.97237      -14.06488
H         35.28576       55.23057      -12.01140
H         33.85610       54.34708      -12.63805
N         34.50413       55.56916      -16.49987
C         33.68704       55.42075      -17.70190
C         34.50758       54.74103      -18.78988
O         35.61486       55.20393      -19.02938
C         33.29365       56.79921      -18.28396
C         32.22848       57.59154      -17.52044
C         31.93644       58.89166      -18.30395
C         30.72671       59.68636      -17.79463
N         30.90877       60.17961      -16.43173
H         35.31125       56.20475      -16.57022
H         32.77445       54.84309      -17.49077
H         32.86654       56.61939      -19.29636
H         34.20835       57.42084      -18.41166
H         32.57307       57.82094      -16.49045
H         31.30328       56.97655      -17.46990
H         31.70598       58.62914      -19.36095
H         32.84169       59.53891      -18.30547
H         29.81447       59.05250      -17.85047
H         30.57800       60.55647      -18.47420
H         30.07090       60.74755      -16.16875
H         30.99216       59.38247      -15.76234
H         31.75826       60.78722      -16.38030
N         34.05196       53.72157      -19.58648
C         32.76684       53.01971      -19.52358
C         31.57364       53.96449      -19.56938
O         30.79723       53.99316      -18.62617
C         32.76492       52.01119      -18.35072
C         33.82958       50.95127      -18.54883
O         33.98197       49.94738      -17.67218
O         34.55731       50.96841      -19.53017
H         34.68173       53.42340      -20.34787
H         32.66803       52.39065      -20.43222
H         31.78281       51.49257      -18.32261
H         32.91904       52.52385      -17.38107
N         31.32803       54.77115      -20.64024
C         32.10226       54.71017      -21.87297
C         31.70954       55.77461      -22.87972
O         30.92552       56.65437      -22.55308
H         30.52362       55.41319      -20.57318
H         31.95964       53.70695      -22.31372
H         33.17765       54.86625      -21.65789
N         32.25757       55.82105      -24.12891
C         33.14788       54.79739      -24.67803
C         32.38882       53.51748      -25.01735
O         31.16557       53.50684      -24.97045
C         33.87588       55.31230      -25.94894
C         32.96741       55.60885      -27.12261
O         32.04437       56.58713      -27.05815
O         33.09211       54.97965      -28.16096
H         32.03134       56.64737      -24.69804
H         33.93577       54.57960      -23.92460
H         34.61315       54.54297      -26.26656
H         34.45099       56.22862      -25.69881
N         33.06982       52.40449      -25.42078
C         32.42043       51.20100      -25.91802
C         31.56099       50.45975      -24.92009
O         30.92854       49.50114      -25.34430
H         34.09947       52.43116      -25.44978
H         33.19175       50.49109      -26.28745
H         31.78258       51.48758      -26.78267
N         31.46047       50.81857      -23.60658
C         30.54935       50.15274      -22.68320
C         29.49626       51.14306      -22.21782
O         29.64260       52.34118      -22.42794
C         31.32688       49.54642      -21.48056
C         32.47147       48.62261      -21.90971
O         30.47283       48.84979      -20.61041
H         32.01992       51.60202      -23.24404
H         30.01326       49.33094      -23.20685
H         31.78204       50.37719      -20.90723
H         30.08458       48.08579      -21.11244
H         32.07993       47.75988      -22.48840
H         33.20901       49.17426      -22.52860
H         32.99574       48.24207      -21.00631
N         28.37071       50.68945      -21.61161
C         27.31967       51.54503      -21.08489
C         27.10824       51.28212      -19.59645
O         26.20131       51.86834      -19.02610
C         26.00350       51.43973      -21.92753
C         25.23013       50.08730      -21.93952
C         26.24484       51.95211      -23.36016
C         25.84271       48.90929      -22.70929
H         28.26466       49.67556      -21.50818
H         27.61944       52.61509      -21.15519
H         25.29655       52.16540      -21.46473
H         24.25540       50.29067      -22.43795
H         25.00297       49.76976      -20.90041
H         25.29110       51.98166      -23.92952
H         26.65310       52.98542      -23.33412
H         26.96867       51.31109      -23.90412
H         26.07228       49.18499      -23.75913
H         26.73798       48.49412      -22.22479
H         25.10526       48.07974      -22.73741
N         27.92989       50.43585      -18.89573
C         27.75560       50.11211      -17.48976
C         29.00349       50.52638      -16.72232
O         30.06537       49.96947      -16.96243
C         27.52051       48.58929      -17.34421
C         26.35189       48.10324      -18.21281
O         27.26935       48.28568      -15.99682
H         28.71857       49.97858      -19.36086
H         26.86997       50.64540      -17.08066
H         28.44101       48.05852      -17.68769
H         27.43339       47.31246      -15.88734
H         25.40989       48.61607      -17.92919
H         26.55895       48.29310      -19.28854
H         26.22314       47.00720      -18.08981
N         28.95016       51.52439      -15.79538
C         30.11685       51.95141      -15.01635
C         30.39546       50.92236      -13.91482
O         29.61430       49.98800      -13.77745
C         29.84859       53.37013      -14.41825
C         29.55315       54.39742      -15.52514
O         30.96691       53.81824      -13.69937
H         28.04970       52.00596      -15.65411
H         30.99824       52.03747      -15.68982
H         28.97265       53.30215      -13.73250
H         30.72303       54.68148      -13.27594
H         28.66767       54.11829      -16.13044
H         29.34723       55.39131      -15.07460
H         30.43462       54.49530      -16.18951
N         31.44479       51.06142      -13.04619
C         31.56485       50.24632      -11.83590
C         32.97406       49.75612      -11.52633
O         33.10551       48.99478      -10.57892
C         30.96842       51.05400      -10.66222
C         31.78819       52.31339      -10.30253
C         31.02914       53.29269       -9.39128
C         29.88117       53.99906      -10.14310
N         29.24573       55.02152       -9.31629
H         32.07125       51.86677      -13.15866
H         30.93560       49.33517      -11.94231
H         30.86805       50.42170       -9.75263
H         29.94435       51.32916      -10.98284
H         32.08533       52.88430      -11.20422
H         32.72145       51.97959       -9.79862
H         31.75052       54.07619       -9.07251
H         30.65352       52.77275       -8.48357
H         29.10816       53.27348      -10.46983
H         30.29702       54.49165      -11.04627
H         28.81565       54.58398       -8.47037
H         29.94929       55.74107       -9.03161
H         28.49694       55.49036       -9.87698
N         34.07171       50.14868      -12.24068
C         35.42183       49.68512      -11.93576
C         36.26910       50.85307      -11.47899
O         36.43066       51.81229      -12.22098
C         36.04256       49.00507      -13.16719
C         35.26916       47.73252      -13.54161
C         35.89722       47.04818      -14.71489
O         36.37326       45.79432      -14.59777
O         35.97197       47.62268      -15.78512
H         33.97034       50.80987      -13.02189
H         35.41291       48.93290      -11.11728
H         37.09303       48.72141      -12.93224
H         36.05538       49.71526      -14.02505
H         34.21632       47.98151      -13.79528
H         35.27143       47.03572      -12.67565
N         36.84559       50.83112      -10.24411
C         37.65598       51.91959       -9.74549
H         38.53215       52.07831      -10.40870
H         37.05062       52.84888       -9.69314
H         38.02275       51.67717       -8.72456
H         36.70798       50.01386       -9.63045
Ca        35.60006       48.50659      -18.33031
O         38.60249       48.19144      -17.45731
H         39.10749       48.97680      -17.12837
H         38.50835       47.60766      -16.66330
O         36.94260       51.22514      -17.00972
H         36.18691       51.35411      -16.38297
H         36.79913       51.90540      -17.71494
O         33.22964       46.77192      -18.18099
H         33.73519       46.32512      -17.45590
H         32.49272       47.24292      -17.71710

Ca 1.0



