%chk=apoCaM-CA-Ng.loop1.water3.frame761.chk
%nprocshared=20
%mem=10GB
%nosave
#b3lyp/svp scf=(tight,noincore,xqc) Test 
#IOP(5/87=12) Density=Current Pop=(MK,readradii) iop(6/33=2) iop(6/42=6)

apoCaM-CA-Ng.loop1.water3.frame761 

   0  1 
C         53.59390       37.19004       12.54378
C         54.00004       37.73840       11.21253
O         53.27811       37.57868       10.23925
H         52.60852       36.68606       12.48008
H         54.35666       36.45283       12.87650
H         53.54272       38.01398       13.28588
N         55.18254       38.39099       11.10729
C         55.72878       38.89792        9.86127
C         57.00212       38.08974        9.53638
O         57.85266       37.93056       10.65669
C         55.86722       40.44405        9.91939
C         56.43608       40.99871       11.19926
O         57.69033       40.71333       11.57956
O         55.74976       41.72603       11.90171
H         55.75222       38.50289       11.96152
H         55.05047       38.69568        9.00386
H         54.83829       40.85908        9.82624
H         56.44566       40.81994        9.04789
N         57.63839       38.53315        8.28371
C         58.81653       37.76890        7.84161
C         59.81708       38.79269        7.38485
O         59.50901       39.59640        6.51415
C         58.53320       36.74650        6.69729
C         59.76630       35.83459        6.45964
C         59.51343       34.72250        5.42280
C         60.62671       33.64975        5.40557
N         61.92700       34.17277        4.98652
H         56.92279       38.54039        7.51733
H         59.22356       37.18931        8.69822
H         58.24618       37.26696        5.75445
H         57.68714       36.09552        7.00276
H         60.00482       35.34365        7.42727
H         60.64168       36.44301        6.14513
H         59.38070       35.15823        4.40828
H         58.57665       34.19241        5.69809
H         60.32771       32.83855        4.70468
H         60.72061       33.19666        6.41826
H         62.26668       34.89631        5.65823
H         62.61737       33.38594        4.97713
H         61.86293       34.57282        4.02293
N         61.04601       38.82330        7.94796
C         62.04819       39.82029        7.60297
C         63.42181       39.42699        8.11129
O         63.53569       38.59791        9.00323
C         61.66765       41.24156        8.11774
C         61.01731       41.20563        9.47258
O         61.50939       40.44164       10.45509
O         59.88219       41.63930        9.59374
H         61.27448       38.07849        8.61800
H         62.13214       39.80507        6.49761
H         60.92107       41.68702        7.42746
H         62.55022       41.91448        8.13051
N         64.55173       39.91733        7.53228
C         64.59572       40.83502        6.40602
C         65.16647       40.13029        5.20755
O         65.00137       38.92455        5.08287
H         65.45731       39.57512        7.87198
H         65.24761       41.68567        6.69434
H         63.62422       41.27500        6.11861
N         65.87122       40.82765        4.27973
C         66.58139       40.17777        3.18631
C         67.62443       39.19743        3.73041
O         67.63546       38.05303        3.29854
C         67.15721       41.20629        2.17442
C         68.04178       42.32799        2.67055
O         68.30363       42.52233        3.97410
O         68.49259       43.12021        1.85910
H         65.93061       41.85093        4.38533
H         65.85649       39.58374        2.58232
H         66.29290       41.70017        1.67724
H         67.71011       40.63973        1.39404
N         68.49272       39.55839        4.71856
C         69.50668       38.68533        5.29641
C         68.98513       37.54889        6.17012
O         69.81122       36.87263        6.76514
H         68.45569       40.51408        5.08834
H         70.13546       39.31321        5.96418
H         70.16568       38.29072        4.49429
N         67.65934       37.26971        6.31536
C         67.14232       36.25132        7.22922
C         67.16609       36.79576        8.63961
O         66.86788       37.96477        8.82270
C         65.69594       35.85537        6.85441
C         65.65523       35.22010        5.45868
O         65.21685       34.92122        7.78986
H         66.97827       37.81521        5.78475
H         67.74828       35.31956        7.15877
H         65.05669       36.76998        6.87247
H         64.22623       34.98655        7.78615
H         66.01305       35.92851        4.68374
H         66.29116       34.30851        5.43220
H         64.61846       34.92888        5.20457
N         67.46696       36.00462        9.70607
C         67.51500       36.54941       11.06148
C         68.71794       37.48696       11.21902
O         68.78818       38.18267       12.21949
C         67.45751       35.39815       12.12154
C         66.17919       34.51939       11.95511
C         67.54469       35.90356       13.57606
C         64.84926       35.27573       12.06701
H         67.64549       35.00188        9.54421
H         66.61225       37.17831       11.21621
H         68.33441       34.73133       11.96606
H         66.19161       33.71907       12.72687
H         66.18922       34.01103       10.96932
H         66.73810       36.62953       13.80625
H         67.47122       35.04878       14.28220
H         68.52386       36.38036       13.77704
H         64.00617       34.56031       11.97082
H         64.75118       35.79015       13.04442
H         64.74493       36.01383       11.24617
N         69.68704       37.57992       10.25626
C         70.83541       38.47464       10.35062
C         72.10048       37.63687       10.41238
O         72.03149       36.42053       10.31140
C         70.84893       39.44208        9.13222
C         69.56729       40.26745        9.03395
O         71.92069       40.34720        9.21979
H         69.64404       36.98369        9.42055
H         70.78851       39.07564       11.28419
H         70.92845       38.83293        8.20154
H         72.54396       40.15385        8.47125
H         68.68841       39.61389        8.89599
H         69.42873       40.87802        9.95133
H         69.62777       40.94602        8.15635
N         73.30326       38.24170       10.60615
C         74.55940       37.52215       10.69693
C         75.13643       37.77900       12.07647
O         75.32592       36.83160       12.82795
C         75.47979       37.95062        9.51925
C         76.80578       37.18803        9.50579
O         75.73209       39.33230        9.54865
H         73.33568       39.26179       10.72074
H         74.39579       36.42637       10.58814
H         74.93016       37.69894        8.58008
H         75.89077       39.62603        8.61375
H         77.40787       37.50602        8.62724
H         77.38891       37.39391       10.42750
H         76.61866       36.09667        9.42321
N         75.43412       39.04736       12.47250
C         76.02603       39.39120       13.75301
C         75.32648       40.61558       14.32651
O         75.15388       41.58242       13.59381
C         77.50719       39.70201       13.49770
C         78.28778       39.88862       14.80239
C         79.75869       40.18294       14.50492
C         80.56773       40.28494       15.80116
N         81.96415       40.60810       15.51562
H         75.30653       39.81780       11.80258
H         75.98790       38.53173       14.46010
H         77.60111       40.60005       12.84735
H         77.95595       38.83688       12.95879
H         78.21069       38.95303       15.40054
H         77.85925       40.72697       15.39297
H         79.82788       41.13993       13.94246
H         80.18484       39.36808       13.87857
H         80.51693       39.31353       16.34299
H         80.13392       41.07515       16.45307
H         82.02375       41.53611       15.03662
H         82.49443       40.65585       16.41508
H         82.38887       39.86973       14.90851
N         74.97774       40.69595       15.64287
C         74.41669       41.92311       16.20017
C         72.96824       42.12351       15.75952
O         72.70174       43.15502       15.15982
C         74.61655       42.01762       17.72986
C         74.20916       43.40937       18.25747
C         74.45052       43.57950       19.73222
O         74.95871       42.57890       20.47812
O         74.18339       44.64553       20.26345
H         75.21368       39.91313       16.27216
H         75.02827       42.77234       15.81342
H         75.69949       41.87377       17.94208
H         74.06710       41.23192       18.27382
H         73.13040       43.58587       18.05957
H         74.79858       44.18713       17.72263
N         71.95996       41.22765       15.98404
C         72.11153       39.93605       16.62106
H         72.42906       40.03746       17.67258
H         71.13323       39.41006       16.63229
H         72.82528       39.30595       16.05339
H         71.01426       41.47000       15.64864
Ca        59.82247       39.05231       10.91602
O         59.45168       41.92574       13.68560
H         58.63587       42.48038       13.59892
H         59.95261       42.33645       14.43421
O         62.08103       39.99667       13.80600
H         62.32153       40.60211       14.55193
H         62.94598       39.77255       13.37923
O         61.97710       36.90350       11.48079
H         61.79530       37.48484       10.70507
H         62.79550       37.29311       11.87536

Ca 1.0



