%chk=apoCaM-CA-Ng.loop1.water5.frame655.chk
%nprocshared=20
%mem=10GB
%nosave
#b3lyp/svp scf=(tight,noincore,xqc) Test 
#IOP(5/87=12) Density=Current Pop=(MK,readradii) iop(6/33=2) iop(6/42=6)

apoCaM-CA-Ng.loop1.water5.frame655 

   0  1 
C         90.65521       26.70306      105.56707
C         89.24100       26.27785      105.82525
O         88.37824       26.54948      105.00239
H         91.31342       25.80980      105.53113
H         90.73400       27.24516      104.60025
H         90.99458       27.37613      106.38199
N         88.93461       25.59749      106.96552
C         87.58272       25.16078      107.30476
C         87.12395       25.80068      108.60887
O         87.88846       26.53110      109.22636
C         87.50835       23.61623      107.34553
C         88.31898       22.97704      108.44003
O         89.53383       23.08632      108.46887
O         87.69810       22.23987      109.37826
H         89.69957       25.39042      107.62478
H         86.87080       25.48818      106.51584
H         87.84187       23.20726      106.36714
H         86.44823       23.31354      107.48107
N         85.85912       25.58450      109.07545
C         85.32610       26.20546      110.29083
C         86.04897       25.81242      111.57693
O         85.68586       26.34843      112.61558
C         83.80935       25.92697      110.41934
C         82.95500       26.67707      109.37304
C         82.97976       28.20311      109.60484
C         82.01762       28.95397      108.68001
N         82.02826       30.38666      108.98547
H         85.23329       24.98936      108.51187
H         85.47921       27.29784      110.21641
H         83.43833       26.24871      111.41680
H         83.63954       24.83013      110.34362
H         81.90557       26.33158      109.49714
H         83.27876       26.42992      108.33887
H         83.99529       28.61300      109.43652
H         82.68127       28.40703      110.65642
H         80.98574       28.56267      108.81875
H         82.31751       28.79508      107.62060
H         82.98882       30.78049      108.86727
H         81.37587       30.88411      108.33807
H         81.71432       30.54617      109.97054
N         87.09460       24.94346      111.60454
C         87.93795       24.74840      112.78140
C         89.41170       24.71454      112.38635
O         89.71849       24.19247      111.32637
C         87.46157       23.53873      113.61382
C         87.00706       22.32422      112.83366
O         85.82472       22.02047      112.87934
O         87.83176       21.53836      112.11107
H         87.34243       24.42662      110.75322
H         87.83229       25.61488      113.46651
H         86.55611       23.89882      114.15533
H         88.20700       23.27192      114.39272
N         90.41402       25.22760      113.16719
C         90.23744       25.87816      114.45716
C         89.75022       27.31548      114.37795
O         89.56877       27.90426      115.43382
H         91.38654       25.09269      112.84800
H         91.22544       25.92787      114.96528
H         89.57384       25.26083      115.09944
N         89.53967       27.95970      113.19134
C         89.07429       29.34623      113.09933
C         87.71552       29.38188      112.44011
O         87.22963       28.34171      112.03903
C         90.08016       30.18786      112.28888
C         91.42044       30.24380      112.96112
O         91.53600       30.77925      114.19158
O         92.41287       29.82137      112.39026
H         89.70137       27.45701      112.30658
H         88.95375       29.79715      114.10865
H         89.71757       31.23229      112.18379
H         90.18245       29.75718      111.26734
N         87.04052       30.55245      112.27653
C         85.73231       30.62171      111.65101
C         85.86522       31.29600      110.32164
O         85.26813       32.34181      110.11198
H         87.47271       31.43632      112.58295
H         85.03352       31.16460      112.32354
H         85.29880       29.61455      111.46782
N         86.63971       30.71753      109.36035
C         86.82655       31.27980      108.03090
C         88.29747       31.52520      107.74051
O         89.16219       31.14792      108.51957
C         86.22013       30.33138      106.95549
C         86.90301       28.96052      106.89576
O         84.85453       30.13571      107.20397
H         87.10836       29.82648      109.58327
H         86.30393       32.25811      107.95400
H         86.34505       30.77868      105.94275
H         84.37434       30.90660      106.80354
H         86.44374       28.34580      106.09351
H         87.98670       29.06249      106.67406
H         86.77480       28.42188      107.85202
N         88.63301       32.12733      106.56860
C         90.00119       32.27295      106.07319
C         90.82390       33.23607      106.93397
O         92.03231       33.29078      106.74500
C         89.92978       32.70377      104.56345
C         89.19676       31.60094      103.73432
C         91.30909       32.99103      103.93742
C         88.76205       32.06631      102.34375
H         87.85580       32.44898      105.97387
H         90.49079       31.27416      106.12197
H         89.33599       33.64484      104.52036
H         88.25805       31.28081      104.22681
H         89.83810       30.69603      103.65669
H         91.95653       32.09019      103.98859
H         91.21262       33.30392      102.87993
H         91.81091       33.84011      104.43984
H         88.07586       32.93599      102.43745
H         89.62100       32.34161      101.70375
H         88.21124       31.24408      101.83930
N         90.25647       34.02762      107.88942
C         91.00399       35.00725      108.67453
C         90.51475       36.40688      108.33300
O         89.61178       36.53800      107.51317
C         90.93065       34.67058      110.18924
C         89.50731       34.62884      110.75243
O         91.53429       33.42310      110.42086
H         89.23824       33.98825      108.03815
H         92.08228       34.99347      108.40059
H         91.47616       35.45211      110.76762
H         92.51121       33.58376      110.50614
H         88.91299       33.81942      110.27962
H         89.55019       34.41810      111.84286
H         88.99631       35.60198      110.60152
N         91.08948       37.50797      108.89508
C         90.71583       38.87254      108.53867
C         91.94800       39.62460      108.04187
O         91.95215       40.06229      106.90131
C         89.99269       39.55523      109.72818
C         89.43431       40.92848      109.34755
O         90.83420       39.69247      110.84382
H         91.83128       37.37521      109.59957
H         89.97329       38.85768      107.70857
H         89.10577       38.93309      110.00046
H         90.75560       38.85714      111.37451
H         88.72473       40.83257      108.49783
H         88.88726       41.36454      110.21038
H         90.24572       41.62290      109.05552
N         93.03520       39.79707      108.85008
C         94.25888       40.49222      108.45927
C         95.44045       39.55513      108.60913
O         95.57896       38.93608      109.65547
C         94.47327       41.72702      109.35413
C         93.39774       42.79687      109.10237
C         93.63405       44.09492      109.88860
C         93.47922       43.91953      111.40680
N         93.66271       45.19642      112.09618
H         93.00450       39.41836      109.80659
H         94.21603       40.85022      107.40681
H         95.46080       42.17547      109.10391
H         94.48715       41.41545      110.41997
H         92.39202       42.39867      109.34274
H         93.41941       43.05773      108.02113
H         92.87961       44.83762      109.54857
H         94.64381       44.49559      109.65010
H         94.22649       43.19454      111.79246
H         92.46092       43.52833      111.62739
H         93.53383       45.05300      113.12373
H         94.62758       45.56149      111.92317
H         92.95743       45.89268      111.76142
N         96.37201       39.44250      107.61719
C         97.52081       38.55310      107.73681
C         97.06838       37.09619      107.70752
O         97.33328       36.40920      108.68383
C         98.62053       38.85380      106.69166
C         99.23726       40.24819      106.89145
C        100.36831       40.47407      105.92856
O        101.44933       39.67025      105.95548
O        100.32073       41.39326      105.12708
H         96.27955       40.03245      106.77662
H         98.01266       38.74050      108.72002
H         98.24425       38.78831      105.65766
H         99.42859       38.09959      106.82239
H         99.63887       40.34082      107.92375
H         98.45997       41.02917      106.74591
N         96.36605       36.51981      106.68521
C         95.93899       37.18673      105.47248
H         95.29616       38.05856      105.70686
H         96.80384       37.48488      104.85543
H         95.34318       36.48377      104.85267
H         96.09211       35.53013      106.78751
Ca        90.06373       21.55624      111.79540
O         92.60938       22.92658      110.56619
H         92.77937       23.89141      110.70918
H         93.13016       22.47420      111.27660
O         90.36946       18.54040      112.26084
H         91.12545       18.14934      111.75511
H         90.79893       19.05559      112.98950
O         91.23292       22.44873      114.25127
H         90.96483       21.70078      114.84142
H         92.10392       22.16931      113.87196
O         91.55311       20.01850      109.18340
H         91.68997       19.03809      109.15728
H         92.41809       20.39819      108.88704
O         88.54669       19.37111      109.45832
H         88.24867       19.67120      108.56289
H         87.97168       18.59184      109.66295

Ca 1.0



