%chk=apoCaM-CA-Ng.loop2.water5.frame477.chk
%nprocshared=20
%mem=10GB
%nosave
#b3lyp/svp scf=(tight,noincore,xqc) Test 
#IOP(5/87=12) Density=Current Pop=(MK,readradii) iop(6/33=2) iop(6/42=6)

apoCaM-CA-Ng.loop2.water5.frame477 

   -2  1 
C         54.45355       62.28355       71.11576
C         55.38003       61.77574       70.05133
O         56.52009       61.45346       70.35524
H         53.56508       61.61995       71.18052
H         54.95863       62.29665       72.10567
H         54.12349       63.31307       70.86636
N         54.94090       61.65393       68.76729
C         55.77737       61.11987       67.69964
C         56.94609       62.04923       67.42633
O         56.72199       63.16355       66.97229
C         54.93933       60.93056       66.41254
C         55.69055       60.28986       65.27164
O         55.11957       60.10657       64.20883
O         56.97635       59.90745       65.40214
H         53.96291       61.91196       68.56020
H         56.13845       60.11693       68.02041
H         54.55594       61.91964       66.07590
H         54.06525       60.28486       66.64580
N         58.22483       61.65104       67.68396
C         59.38858       62.46189       67.35698
C         60.01805       63.00817       68.62007
O         60.42171       62.24160       69.48425
C         60.38805       61.63324       66.54722
H         58.38155       60.73600       68.13460
H         59.09235       63.31901       66.71406
H         59.90865       61.27293       65.61172
H         61.26862       62.25388       66.27522
H         60.73546       60.75338       67.13030
N         60.11409       64.35931       68.78570
C         60.65306       65.00709       69.97858
C         62.13698       64.75058       70.22050
O         62.63293       65.24030       71.22378
C         60.38028       66.52993       69.91928
C         61.05285       67.20919       68.75295
O         60.38065       67.77281       67.90415
O         62.39530       67.21321       68.64432
H         59.73175       64.96076       68.04024
H         60.09855       64.61438       70.85932
H         60.71935       67.01340       70.86071
H         59.28098       66.68403       69.84566
N         62.91694       64.01596       69.37382
C         64.33392       63.76797       69.60408
C         64.64625       62.88810       70.80650
O         65.81973       62.60874       71.00574
H         62.51934       63.64113       68.50252
H         64.86728       64.73834       69.70273
H         64.74401       63.24507       68.71253
N         63.68072       62.41042       71.64683
C         63.95286       61.52993       72.77670
C         63.14520       60.25778       72.63417
O         62.04415       60.28888       72.10076
C         63.57468       62.19378       74.12071
C         64.52901       63.28598       74.54997
N         64.67825       64.42415       73.83749
O         65.17290       63.13885       75.57849
H         62.69626       62.65742       71.48995
H         65.02890       61.25094       72.83276
H         63.61294       61.41047       74.91217
H         62.53200       62.57902       74.08431
H         64.14227       64.58531       72.98034
H         65.33164       65.15621       74.15309
N         63.60198       59.11372       73.20978
C         62.83951       57.88009       73.25996
C         62.50466       57.54871       74.69308
O         62.84106       58.31256       75.58932
H         64.51853       59.12518       73.68424
H         63.44801       57.06455       72.81294
H         61.88859       57.95359       72.69051
N         61.84665       56.39611       74.98936
C         61.55283       56.01468       76.36813
C         60.56289       56.96048       77.05265
O         60.52475       56.95523       78.27541
C         61.09090       54.53544       76.48169
C         59.78468       54.21808       75.73222
O         62.11706       53.66581       76.06687
H         61.61304       55.76166       74.21233
H         62.51216       56.08328       76.93060
H         60.90865       54.32211       77.55764
H         62.18672       53.71139       75.07806
H         59.50605       53.15743       75.90690
H         58.95852       54.85505       76.09101
H         59.88888       54.37092       74.63905
N         59.69561       57.74862       76.34741
C         58.71120       58.63781       76.97699
C         58.79985       60.05510       76.42013
O         59.63632       60.31658       75.56499
C         57.27729       58.01898       76.88777
C         56.83310       57.54976       75.47885
C         57.17542       56.83829       77.87011
C         56.72155       58.66768       74.44597
H         59.68745       57.67709       75.31886
H         58.93259       58.76129       78.06053
H         56.53358       58.75528       77.25611
H         55.82127       57.09698       75.57089
H         57.51630       56.76159       75.09647
H         57.87827       56.02732       77.61014
H         57.40834       57.17714       78.90303
H         56.14498       56.42506       77.87906
H         56.02273       59.45305       74.80381
H         57.70954       59.11331       74.22504
H         56.32647       58.24720       73.49710
N         57.96589       61.03342       76.89277
C         58.02476       62.43010       76.47263
C         58.26607       63.29190       77.71214
O         57.55211       64.25682       77.94879
C         56.70748       62.77168       75.73616
C         56.65333       64.14947       75.13130
O         55.64448       64.50112       74.54115
O         57.69844       64.99578       75.21661
H         57.26286       60.79151       77.60674
H         58.87365       62.57942       75.77020
H         55.85682       62.65368       76.44402
H         56.56849       62.04449       74.90639
N         59.23209       62.91781       78.59866
C         59.51320       63.58290       79.87142
C         58.23320       63.85365       80.67127
O         57.46252       62.92230       80.85981
C         60.41596       62.65131       80.72213
C         60.65325       63.18123       82.11814
C         61.49392       64.28196       82.34546
C         60.00013       62.57934       83.20926
C         61.66859       64.77756       83.64257
C         60.17098       63.08126       84.50051
C         61.00417       64.18021       84.71792
H         59.76041       62.05832       78.38161
H         60.04925       64.52662       79.65773
H         61.38610       62.44828       80.21906
H         59.88236       61.67719       80.79912
H         62.00786       64.75776       81.51964
H         59.33937       61.73437       83.05824
H         62.31385       65.62885       83.81445
H         59.65145       62.62022       85.33068
H         61.13268       64.56862       85.71968
N         57.96687       65.07493       81.24194
C         56.83242       65.32913       82.12349
C         55.48675       65.19451       81.44793
O         54.53527       64.77711       82.09270
C         57.02917       66.78794       82.56261
C         58.53326       66.91793       82.54100
C         58.85656       66.22365       81.22567
H         56.91547       64.66353       83.01293
H         56.64764       67.48238       81.77798
H         56.53887       67.04413       83.52657
H         58.91701       67.95691       82.62224
H         58.95053       66.31123       83.37852
H         58.58823       66.87301       80.36258
H         59.93373       65.99433       81.21127
N         55.32517       65.61753       80.16225
C         54.02858       65.69771       79.49561
C         53.34057       64.34905       79.31915
O         52.18599       64.35450       78.91320
C         54.17513       66.35995       78.10595
C         54.72999       67.79379       78.17717
C         54.87256       68.37173       76.80148
O         54.18786       69.47849       76.45771
O         55.62183       67.84860       75.99256
H         56.16187       65.94975       79.66305
H         53.36857       66.33705       80.12430
H         53.17761       66.40869       77.61484
H         54.84305       65.72721       77.47864
H         55.73017       67.82314       78.65470
H         54.04006       68.42384       78.77853
N         53.96425       63.16283       79.57620
C         53.31659       61.87610       79.41064
H         52.26155       61.96770       79.07533
H         53.87090       61.28080       78.65571
H         53.32505       61.33302       80.37844
H         54.94430       63.14805       79.88625
Ca        56.55798       67.08623       73.29377
O         57.46435       65.13109       71.25304
H         56.88756       65.18238       70.45020
H         57.34444       64.20847       71.59068
O         56.07467       68.13044       70.51383
H         56.80706       68.68253       70.88748
H         55.35632       68.77883       70.30523
O         56.26162       70.11539       73.53213
H         55.36859       70.08235       73.10565
H         56.07196       70.22562       74.49735
O         59.35858       68.10425       73.85521
H         59.66216       67.69422       74.70380
H         59.20354       69.05604       74.08012
O         53.51969       67.28394       72.92107
H         53.47821       66.30183       72.80078
H         52.90766       67.46839       73.67717

Ca 1.0



