%chk=apoCaM-CA-Ng.loop1.water3.frame1385.chk
%nprocshared=20
%mem=10GB
%nosave
#b3lyp/svp scf=(tight,noincore,xqc) Test 
#IOP(5/87=12) Density=Current Pop=(MK,readradii) iop(6/33=2) iop(6/42=6)

apoCaM-CA-Ng.loop1.water3.frame1385 

   0  1 
C         25.51070       82.89684       54.25411
C         24.93222       81.54403       54.52121
O         25.51387       80.55519       54.09834
H         26.44885       82.80967       53.66466
H         24.78078       83.50334       53.67926
H         25.73611       83.39950       55.21709
N         23.77813       81.42046       55.23442
C         23.18267       80.12285       55.51280
C         22.75957       79.46094       54.21641
O         21.90225       79.98486       53.51823
C         21.96652       80.23269       56.45357
C         22.35137       80.79445       57.79374
O         21.83505       81.82276       58.19992
O         23.25856       80.15805       58.55972
H         23.32630       82.27376       55.59767
H         23.94009       79.49422       56.03469
H         21.54100       79.21793       56.62131
H         21.18102       80.86621       55.98551
N         23.31890       78.27421       53.86427
C         22.92435       77.49732       52.69296
C         22.10851       76.29223       53.13791
O         20.97432       76.19761       52.68930
C         24.11005       77.11172       51.77711
C         24.97068       78.32816       51.41701
C         26.03892       77.97985       50.37410
C         26.95705       79.18418       50.12281
N         27.93685       78.89233       49.07763
H         24.02741       77.90940       54.50362
H         22.25639       78.11769       52.05192
H         23.68554       76.66488       50.85008
H         24.77085       76.34851       52.22864
H         25.46825       78.68422       52.34282
H         24.32971       79.14188       51.01294
H         25.53434       77.68722       49.42686
H         26.65579       77.12504       50.72888
H         27.48990       79.43883       51.06681
H         26.34970       80.06411       49.81531
H         27.44664       78.70485       48.17285
H         28.56247       79.72143       48.95621
H         28.51778       78.06461       49.34408
N         22.51407       75.35939       54.05581
C         23.80227       75.30264       54.75246
C         23.64531       75.76303       56.19603
O         22.52740       75.97695       56.64365
C         24.42726       73.91211       54.60256
C         23.48591       72.83419       55.03603
O         23.08739       72.73581       56.31876
O         23.03786       72.07116       54.19763
H         21.80666       74.65963       54.33121
H         24.53515       75.97474       54.29894
H         25.38450       73.83634       55.15978
H         24.65221       73.76492       53.52206
N         24.74751       76.06455       56.94233
C         24.65334       76.76075       58.21883
C         24.48539       75.83744       59.39805
O         24.50388       74.62731       59.23696
H         25.67741       75.97792       56.50526
H         23.82718       77.50346       58.18016
H         25.59158       77.33066       58.38932
N         24.30965       76.37792       60.64059
C         24.19926       75.58908       61.86764
C         25.15673       76.11494       62.93830
O         25.67399       77.20986       62.77684
C         22.72410       75.62671       62.33367
C         21.92136       74.83143       61.35223
O         22.25975       73.54107       61.15686
O         21.04253       75.35322       60.68657
H         24.21437       77.40260       60.71445
H         24.49365       74.54262       61.65748
H         22.36758       76.67836       62.40515
H         22.56473       75.16708       63.32120
N         25.46899       75.41097       64.07344
C         25.02977       74.05491       64.36418
C         25.64767       73.03369       63.43625
O         26.60667       73.33826       62.74066
H         26.07950       75.86337       64.77194
H         23.93180       73.98819       64.33753
H         25.32359       73.77052       65.39743
N         25.11353       71.78505       63.37238
C         25.63008       70.70417       62.53503
C         25.77276       71.12305       61.07571
O         24.85381       71.70725       60.52201
C         24.72085       69.45554       62.66573
C         25.25808       68.25726       61.87417
O         23.41806       69.74970       62.22663
H         24.28025       71.59954       63.95338
H         26.63372       70.41647       62.91854
H         24.70602       69.14277       63.73783
H         22.85105       69.88858       63.02926
H         26.27917       67.99188       62.22039
H         24.59329       67.38014       62.02063
H         25.30003       68.48089       60.78846
N         26.91321       70.78790       60.39658
C         27.21342       71.06830       58.99310
C         26.18146       70.44425       58.06640
O         25.04320       70.88631       58.04929
C         27.42048       72.58876       58.73880
C         28.49206       73.19922       59.68432
C         27.77237       72.87405       57.26570
C         29.88968       72.57406       59.58421
H         27.63429       70.25679       60.90798
H         28.18162       70.57487       58.76671
H         26.46940       73.11593       58.94960
H         28.15362       73.09388       60.73403
H         28.57734       74.28773       59.47467
H         26.95525       72.53728       56.59516
H         27.90328       73.96607       57.10708
H         28.70206       72.35072       56.96195
H         29.87291       71.50236       59.86935
H         30.30823       72.67822       58.56320
H         30.57282       73.09043       60.29029
N         26.53681       69.42286       57.23217
C         25.61070       68.78179       56.30812
C         25.52214       67.29007       56.59995
O         25.74253       66.47780       55.71402
C         26.00296       69.10888       54.84180
C         27.41090       68.65763       54.43758
O         25.92955       70.49603       54.64746
H         27.51005       69.08513       57.24599
H         24.58046       69.18170       56.44759
H         25.28398       68.59138       54.15944
H         25.02006       70.68512       54.30984
H         28.18097       69.17222       55.04730
H         27.54330       67.56371       54.53834
H         27.58376       68.92121       53.37275
N         25.13023       66.86308       57.83364
C         24.89023       65.46047       58.15386
C         23.38874       65.32858       58.29332
O         22.83771       65.57531       59.35549
C         25.71488       65.03103       59.38853
C         25.50329       63.55024       59.71461
O         27.08270       65.22525       59.12815
H         24.91325       67.56763       58.55395
H         25.21123       64.80346       57.31518
H         25.41355       65.62250       60.28375
H         27.28822       66.17643       59.32510
H         25.79941       62.91741       58.84971
H         26.12767       63.26436       60.58784
H         24.44088       63.34775       59.96236
N         22.66924       65.19543       57.13906
C         21.24274       65.43264       56.97538
C         20.87545       66.87187       57.26527
O         21.64036       67.59127       57.90042
C         20.31360       64.47472       57.75036
C         20.39918       63.02466       57.25096
C         19.17620       62.19267       57.69203
C         19.02599       61.96858       59.20515
N         20.07251       61.09541       59.73408
H         23.19330       65.02229       56.26742
H         21.03149       65.30193       55.88831
H         19.27549       64.82018       57.55279
H         20.48373       64.53804       58.84607
H         21.36295       62.55938       57.54641
H         20.35776       63.04257       56.14009
H         19.20573       61.20356       57.18706
H         18.26320       62.71601       57.32965
H         18.04187       61.47789       59.37786
H         19.01306       62.93579       59.75216
H         20.05103       60.17561       59.23534
H         21.01233       61.53753       59.62789
H         19.89016       60.92557       60.74950
N         19.72146       67.37984       56.76389
C         19.27460       68.74979       56.96930
C         20.34601       69.74914       56.55341
O         20.71423       70.54848       57.39679
C         17.93534       69.02507       56.25589
C         16.79159       68.16769       56.82051
C         15.51167       68.43949       56.08693
O         15.42901       68.21167       54.88999
O         14.44281       68.92067       56.74854
H         19.14345       66.75510       56.17632
H         19.09256       68.90213       58.05866
H         18.02620       68.82647       55.17348
H         17.66623       70.09581       56.39505
H         16.66136       68.40036       57.89963
H         17.01606       67.08585       56.72287
N         20.94783       69.78627       55.33078
C         20.67876       68.91384       54.21164
H         19.65559       69.06874       53.82783
H         21.37188       69.16331       53.37911
H         20.84978       67.85493       54.48728
H         21.68742       70.48333       55.20209
Ca        21.74700       72.36620       59.31630
O         19.81675       70.43912       60.38224
H         19.94298       70.65683       61.33957
H         19.42084       71.25882       59.99186
O         23.13621       69.36527       59.48533
H         22.30664       69.07686       59.94046
H         22.82552       69.81181       58.66028
O         20.12248       74.53839       57.47625
H         19.98436       75.51724       57.43120
H         20.48603       74.39165       58.38283

Ca 1.0



