%chk=apoCaM-CA-Ng.loop2.water4.frame1245.chk
%nprocshared=20
%mem=10GB
%nosave
#b3lyp/svp scf=(tight,noincore,xqc) Test 
#IOP(5/87=12) Density=Current Pop=(MK,readradii) iop(6/33=2) iop(6/42=6)

apoCaM-CA-Ng.loop2.water4.frame1245 

   -2  1 
C         32.54624       19.18243       31.76359
C         33.44265       18.33804       30.89818
O         33.77672       18.77726       29.80782
H         31.59606       18.64726       31.97130
H         33.06317       19.41618       32.71849
H         32.30228       20.14106       31.25822
N         33.90169       17.11353       31.28676
C         33.56137       16.46267       32.54814
C         32.87494       15.13080       32.26782
O         32.60772       14.83816       31.11162
C         34.82811       16.29816       33.42268
C         35.70483       15.14912       33.01589
O         36.32031       15.09545       31.82392
O         35.81287       14.19802       33.77328
H         34.52719       16.60753       30.64031
H         32.86739       17.08898       33.14315
H         34.48832       16.08524       34.45990
H         35.40323       17.24712       33.46245
N         32.57409       14.27226       33.28582
C         32.01279       12.93018       33.13970
C         32.29406       12.26701       31.78947
O         31.35605       11.86188       31.11623
C         30.51923       12.97864       33.48684
H         32.76440       14.57674       34.25211
H         32.51252       12.27624       33.88840
H         30.37551       13.39796       34.50541
H         29.97918       13.62277       32.75928
H         30.07839       11.95921       33.46395
N         33.58175       12.08823       31.35423
C         33.90545       11.38783       30.10554
C         35.43197       11.12895       29.92261
O         36.09018       10.86088       31.12303
C         33.37742       12.15487       28.86416
C         33.98214       13.52697       28.67412
O         33.63268       14.20954       27.72514
O         34.89904       14.01734       29.52927
H         34.34438       12.41591       31.96426
H         33.40845       10.39472       30.16653
H         32.27805       12.27424       28.92507
H         33.58978       11.55586       27.95317
N         35.68825       10.08645       28.90762
C         37.04702        9.51879       28.92991
C         38.10841       10.49491       28.48686
O         38.32052       11.49788       29.15133
H         35.04238        9.28362       29.09164
H         37.05482        8.64315       28.24527
H         37.30083        9.12236       29.93736
N         38.83545       10.23894       27.36359
C         39.92769       11.07871       26.89217
C         39.56662       11.77132       25.58781
O         40.43461       12.42462       25.02353
C         41.19762       10.21596       26.72351
C         41.62318        9.57636       28.02332
N         41.71921        8.23055       28.13572
O         41.89548       10.28307       28.98232
H         38.60899        9.40177       26.80380
H         40.15940       11.88812       27.61974
H         42.03724       10.85332       26.37007
H         41.01397        9.43523       25.95278
H         41.50374        7.61456       27.33843
H         42.01685        7.80039       29.02417
N         38.30148       11.72674       25.06645
C         37.92772       12.42198       23.84454
C         38.10707       13.92845       23.95287
O         38.48378       14.41297       25.01127
H         37.56073       11.19219       25.54190
H         36.86236       12.20436       23.61478
H         38.55820       12.03593       23.01435
N         37.91021       14.76176       22.89109
C         37.45770       14.32932       21.57038
C         38.61796       14.14150       20.60464
O         38.37430       13.69264       19.49275
C         36.43725       15.34274       20.98731
C         35.18253       15.49192       21.86030
O         37.04425       16.59390       20.75267
H         38.15877       15.75417       23.02243
H         36.95959       13.34115       21.64552
H         36.08850       14.96139       20.00314
H         37.07619       17.10104       21.60527
H         35.44103       15.87529       22.87026
H         34.48079       16.20794       21.38110
H         34.67221       14.51205       21.96634
N         39.89750       14.46847       20.94489
C         41.04345       14.31068       20.05066
C         42.12414       13.47330       20.72743
O         42.05571       13.29738       21.93684
C         41.56681       15.71763       19.61437
C         41.80322       16.65845       20.82849
C         40.57569       16.32543       18.60479
C         42.42834       18.00115       20.45586
H         40.07918       14.86752       21.87582
H         40.73559       13.75203       19.14597
H         42.53206       15.60466       19.08500
H         42.48767       16.15772       21.54590
H         40.84411       16.87383       21.34665
H         40.95047       17.28244       18.19271
H         40.45214       15.63723       17.74021
H         39.58168       16.49252       19.06994
H         42.59399       18.59567       21.37917
H         43.40139       17.84123       19.95067
H         41.76006       18.59099       19.79681
N         43.16009       12.88825       20.05246
C         43.32553       12.82964       18.60032
C         44.80228       12.68138       18.26396
O         45.42779       11.73115       18.71172
C         42.48443       11.68984       17.98189
C         42.77130       10.33358       18.56597
O         43.19375        9.43640       17.85501
O         42.52474       10.08920       19.86753
H         43.82374       12.33631       20.61825
H         42.96951       13.76166       18.12955
H         42.67039       11.67655       16.88442
H         41.40460       11.89052       18.12846
N         45.42907       13.62538       17.50299
C         46.86557       13.61223       17.23435
C         47.23020       14.88820       16.48395
O         46.61329       15.13868       15.45903
C         47.31288       12.38538       16.39300
C         48.77509       12.09986       16.65624
C         49.77357       12.33536       15.69643
C         49.14249       11.58374       17.91409
C         51.11647       12.06987       16.00309
C         50.47776       11.31013       18.20997
C         51.46625       11.55677       17.25701
H         44.86706       14.41938       17.16076
H         47.36430       13.57619       18.22360
H         47.09586       12.56332       15.31599
H         46.76931       11.45843       16.66646
H         49.52013       12.73720       14.72418
H         48.38731       11.38657       18.66552
H         51.88997       12.26220       15.27115
H         50.74323       10.90853       19.17992
H         52.50229       11.34901       17.49290
N         48.19674       15.75921       16.90524
C         49.13585       15.53710       17.98953
C         48.57262       15.84480       19.36890
O         49.34570       15.79668       20.31269
C         50.27089       16.51084       17.63398
C         49.50568       17.69188       17.07557
C         48.48621       16.98883       16.18877
H         49.56071       14.51052       17.98034
H         50.98087       16.74057       18.45620
H         50.85353       16.07759       16.78742
H         48.96926       18.17464       17.92479
H         50.10910       18.46409       16.55361
H         47.59104       17.63677       16.06187
H         48.91254       16.72694       15.19564
N         47.26357       16.18182       19.57118
C         46.74803       16.58908       20.87711
C         46.19409       18.00610       20.78723
O         46.04957       18.51317       19.68389
C         45.65617       15.59564       21.34204
C         46.21720       14.19676       21.64643
C         47.16726       14.21881       22.81255
O         46.74139       14.63191       24.02235
O         48.32320       13.85328       22.67319
H         46.60718       16.18551       18.77886
H         47.57394       16.61623       21.61560
H         44.88096       15.51424       20.54857
H         45.14447       15.96053       22.25651
H         46.71764       13.78435       20.74370
H         45.37844       13.52295       21.91530
N         45.87743       18.75384       21.88635
C         46.07958       18.35996       23.26735
H         46.76840       19.08528       23.74987
H         45.10911       18.37621       23.80344
H         46.52887       17.35831       23.38637
H         45.49789       19.70108       21.73327
Ca        36.90519       12.96265       31.42219
O         38.16192       11.82369       33.88268
H         37.87150       12.68783       34.26809
H         37.31851       11.34767       33.67594
O         38.68957       15.09529       28.98961
H         39.62413       15.05141       28.66500
H         38.21558       15.63645       28.30917
O         39.75572       15.01402       32.00627
H         40.60514       14.56611       32.24750
H         39.94834       15.97967       32.10867
O         40.10483       11.99000       31.36339
H         40.14536       11.08216       31.75579
H         41.00020       12.13156       30.96553

Ca 1.0



