%chk=apoCaM-CA-Ng.loop1.water6.frame608.chk
%nprocshared=20
%mem=10GB
%nosave
#b3lyp/svp scf=(tight,noincore,xqc) Test 
#IOP(5/87=12) Density=Current Pop=(MK,readradii) iop(6/33=2) iop(6/42=6)

apoCaM-CA-Ng.loop1.water6.frame608 

   0  1 
C         48.41154       17.41605       83.97536
C         47.41370       18.25104       83.23043
O         46.63627       17.70740       82.45889
H         49.44014       17.76157       83.74035
H         48.23361       17.51622       85.06668
H         48.31964       16.34534       83.69421
N         47.39107       19.59988       83.41578
C         46.45824       20.49565       82.73804
C         47.19770       21.42839       81.79094
O         48.40429       21.59174       81.91068
C         45.55099       21.25084       83.74688
C         46.27820       21.87318       84.92278
O         46.29624       23.20493       85.12088
O         46.82213       21.15520       85.74654
H         48.09320       20.00887       84.04998
H         45.78188       19.90261       82.08356
H         44.82197       20.53102       84.17869
H         44.96434       22.01516       83.19369
N         46.52959       21.95749       80.72169
C         47.17564       22.70139       79.64402
C         46.31899       23.88187       79.19835
O         45.17178       23.68858       78.82307
C         47.51182       21.76495       78.45756
C         46.33613       20.93934       77.90747
C         46.77891       20.11228       76.68772
C         45.64226       19.25988       76.09677
N         45.26302       18.14792       76.97197
H         45.53683       21.70396       80.59905
H         48.16334       23.08601       79.97989
H         48.29079       21.04570       78.79550
H         47.95549       22.38269       77.64463
H         45.50974       21.60432       77.58634
H         45.97081       20.27239       78.71413
H         47.63922       19.45507       76.94270
H         47.11086       20.82538       75.90187
H         45.99032       18.83647       75.12852
H         44.75900       19.90337       75.88785
H         44.93705       18.48655       77.90354
H         44.48024       17.61776       76.52542
H         46.07575       17.50052       77.09439
N         46.84817       25.13952       79.17132
C         46.12424       26.32753       78.69378
C         47.05315       27.54418       78.56456
O         48.13936       27.52288       79.12636
C         44.90655       26.62803       79.61130
C         45.24929       26.49215       81.06450
O         44.65600       25.49776       81.74813
O         46.09854       27.19307       81.59258
H         47.82717       25.23669       79.47111
H         45.77946       26.10553       77.66705
H         44.11952       25.87507       79.39849
H         44.45049       27.61494       79.43292
N         46.74077       28.65747       77.82784
C         45.52504       28.87383       77.05758
C         45.39699       27.97602       75.85138
O         44.45661       27.19444       75.80732
H         47.42303       29.43192       77.82441
H         45.51202       29.91754       76.67604
H         44.63821       28.78198       77.70572
N         46.24022       28.10917       74.78313
C         46.03432       27.37912       73.53212
C         47.27943       26.65128       73.06546
O         48.36545       26.89502       73.56826
C         45.60758       28.36883       72.42699
C         44.34889       29.10419       72.79041
O         43.20544       28.42519       73.00153
O         44.35558       30.32096       72.88889
H         46.98724       28.81983       74.82418
H         45.23246       26.61895       73.65794
H         45.42608       27.83078       71.47178
H         46.42861       29.10212       72.25726
N         47.16552       25.75928       72.04133
C         48.26563       25.08414       71.37822
C         49.10964       24.20754       72.27597
O         49.86322       24.72846       73.08538
H         46.22344       25.57299       71.66348
H         48.92640       25.83039       70.88670
H         47.83244       24.45982       70.56570
N         49.11013       22.85473       72.10428
C         50.09835       21.97910       72.73026
C         50.09229       22.00935       74.24718
O         49.14859       22.49030       74.85708
C         49.93649       20.51031       72.24057
C         48.63334       19.86236       72.73824
O         49.95772       20.46033       70.83770
H         48.45295       22.45165       71.41940
H         51.09318       22.35091       72.39732
H         50.76851       19.88404       72.63753
H         50.88878       20.65784       70.55720
H         47.74221       20.42123       72.38461
H         48.56529       18.81898       72.36476
H         48.60953       19.82280       73.84846
N         51.14649       21.45399       74.91104
C         51.21635       21.31674       76.36302
C         51.22076       22.67917       77.05316
O         50.92395       22.72879       78.23918
C         52.48390       20.48355       76.78766
C         52.63910       19.12573       76.03681
C         52.54586       20.23021       78.30871
C         51.46609       18.15948       76.19596
H         51.91791       21.09494       74.33503
H         50.30165       20.76732       76.67782
H         53.38672       21.07956       76.52298
H         53.56539       18.62348       76.39314
H         52.79511       19.28679       74.95275
H         53.45469       19.64317       78.56169
H         52.62607       21.17458       78.87998
H         51.65135       19.67610       78.66022
H         50.53482       18.60206       75.78674
H         51.68500       17.23172       75.62566
H         51.31593       17.88273       77.25818
N         51.58914       23.81891       76.39480
C         51.70301       25.11748       77.05231
C         53.15646       25.56765       77.02700
O         53.98598       24.91486       76.40566
C         50.75131       26.13949       76.37670
C         49.29691       25.68116       76.49715
O         50.86626       27.39712       76.98964
H         51.85256       23.77141       75.39918
H         51.42218       25.03557       78.12607
H         51.03147       26.22082       75.29998
H         50.53940       28.07083       76.33742
H         48.61634       26.43520       76.05357
H         49.13658       24.71713       75.98210
H         49.03647       25.55915       77.56391
N         53.54133       26.65856       77.74320
C         54.91413       27.13143       77.83645
C         55.36689       26.99695       79.27747
O         56.34560       26.30727       79.52612
C         55.01627       28.57854       77.28715
C         56.45278       29.10567       77.32184
O         54.19400       29.46498       78.00269
H         52.82903       27.15986       78.29167
H         55.58880       26.50617       77.20829
H         54.71068       28.56629       76.21339
H         53.29842       29.44638       77.57457
H         56.48844       30.12348       76.87795
H         56.82610       29.16607       78.36628
H         57.12267       28.44254       76.73435
N         54.67561       27.60721       80.28198
C         55.02881       27.50592       81.69037
C         53.88666       26.84999       82.45391
O         52.79242       26.73069       81.91804
C         55.34658       28.93883       82.16863
C         55.76614       29.09613       83.63417
C         56.18147       30.55341       83.88905
C         56.60424       30.78714       85.34243
N         57.05388       32.16711       85.53157
H         53.84814       28.17460       80.04859
H         55.92926       26.86604       81.81660
H         54.46201       29.58994       81.98578
H         56.18058       29.30759       81.52980
H         56.62803       28.42837       83.84949
H         54.91709       28.83216       84.30043
H         55.33444       31.23304       83.64610
H         57.03719       30.80247       83.22309
H         57.43432       30.09497       85.60521
H         55.74353       30.58113       86.01691
H         57.33191       32.30571       86.52959
H         57.88221       32.36016       84.92195
H         56.28397       32.83526       85.29689
N         54.08366       26.36596       83.71336
C         53.01319       25.77058       84.50597
C         52.38427       24.55627       83.81728
O         51.19271       24.62825       83.55478
C         53.49485       25.47097       85.94665
C         52.35446       24.98692       86.85901
C         52.78425       24.81432       88.29341
O         51.88328       24.40444       89.20572
O         53.92997       25.04869       88.64760
H         55.02356       26.44735       84.13005
H         52.22156       26.54770       84.61333
H         53.89686       26.42011       86.36582
H         54.31138       24.72308       85.96671
H         51.96975       24.01276       86.48803
H         51.52817       25.72914       86.83696
N         53.04190       23.40631       83.48150
C         54.45172       23.13466       83.66063
H         55.01738       23.98896       84.06325
H         54.57146       22.26306       84.33880
H         54.89701       22.87954       82.67648
H         52.49026       22.64907       83.04733
Ca        45.37949       24.64856       83.68049
O         45.81393       25.61842       87.02420
H         46.41015       25.86965       87.77364
H         45.44005       24.74052       87.28878
O         48.86101       27.28377       83.78864
H         49.52327       27.85383       84.25368
H         49.25953       27.11810       82.89815
O         48.67749       24.77562       85.95222
H         49.07130       24.86370       85.04967
H         48.77269       23.81420       86.16795
O         46.30341       28.41185       85.15118
H         45.71483       28.72605       85.88270
H         47.13377       28.94041       85.25792
O         48.06919       24.73942       82.19214
H         48.37390       24.06692       82.85035
H         48.87890       24.95238       81.66412
O         43.53826       26.97867       84.68286
H         43.36639       26.58498       85.57501
H         42.94369       26.47637       84.07089

Ca 1.0



