%chk=apoCaM-CA-Ng.loop2.water2.frame948.chk
%nprocshared=20
%mem=10GB
%nosave
#b3lyp/svp scf=(tight,noincore,xqc) Test 
#IOP(5/87=12) Density=Current Pop=(MK,readradii) iop(6/33=2) iop(6/42=6)

apoCaM-CA-Ng.loop2.water2.frame948 

   -2  1 
C         81.67241       94.70818       48.46229
C         80.55177       94.04866       47.71581
O         80.68526       93.80744       46.52461
H         82.53574       94.90152       47.79060
H         81.32242       95.67311       48.88488
H         82.00542       94.04723       49.29031
N         79.40770       93.71687       48.37433
C         78.26855       93.06084       47.74463
C         78.04422       91.66568       48.33388
O         77.09900       91.00703       47.92299
C         77.03722       93.97778       47.91201
C         75.82450       93.47966       47.17489
O         75.85677       93.33629       45.96276
O         74.69064       93.20554       47.84753
H         79.34132       93.93613       49.38142
H         78.45020       92.92923       46.65502
H         77.28105       94.98452       47.50682
H         76.80166       94.08885       48.99314
N         78.89363       91.12982       49.26442
C         78.74082       89.79711       49.83555
C         78.66626       89.91514       51.35289
O         79.60564       90.45159       51.92502
C         79.94372       88.94003       49.43101
H         79.71215       91.66894       49.58018
H         77.84202       89.30498       49.42243
H         79.99315       88.86266       48.32357
H         80.89235       89.39201       49.79331
H         79.85045       87.91701       49.85218
N         77.60539       89.49659       52.10785
C         76.41323       88.82079       51.59563
C         75.25026       88.87146       52.58956
O         75.40843       89.33405       53.70996
C         76.73662       87.35790       51.19135
C         77.25567       86.53748       52.34253
O         78.30299       86.84059       52.89165
O         76.58565       85.44283       52.74975
H         77.65802       89.70589       53.11558
H         76.04393       89.39219       50.71708
H         77.50132       87.32739       50.39162
H         75.82364       86.87589       50.78235
N         74.00948       88.48171       52.18483
C         72.80829       88.62243       52.99272
C         72.00792       87.34424       52.97465
O         70.98945       87.32342       52.29783
H         73.88827       88.15316       51.21415
H         72.19469       89.40674       52.49690
H         73.00278       88.97293       54.02690
N         72.36941       86.21072       53.63750
C         73.47229       86.09003       54.58555
C         73.11004       86.83128       55.87091
O         72.05080       86.55850       56.41972
C         73.69514       84.58549       54.87793
C         74.89763       84.26599       55.72685
N         75.17131       82.97882       56.03687
O         75.63520       85.15118       56.12504
H         71.78345       85.37540       53.47338
H         74.40740       86.47545       54.12466
H         73.84425       84.06047       53.90884
H         72.78874       84.16440       55.36545
H         74.56429       82.21735       55.70108
H         75.98857       82.73904       56.61346
N         73.93937       87.76939       56.41356
C         73.60416       88.55321       57.59940
C         74.50392       88.28482       58.79324
O         74.33713       88.96559       59.79527
H         74.84410       87.95309       55.96029
H         72.56093       88.36361       57.93270
H         73.67529       89.62753       57.32707
N         75.43535       87.28947       58.79198
C         76.27475       86.94986       59.93993
C         77.74847       86.99887       59.55571
O         78.06859       87.30103       58.41436
C         75.88561       85.53541       60.45419
C         74.45560       85.50642       60.99624
O         75.99673       84.58392       59.42930
H         75.53356       86.70329       57.95641
H         76.12858       87.66872       60.77624
H         76.52995       85.23688       61.31170
H         76.96484       84.41953       59.30556
H         74.35034       86.22629       61.83606
H         73.72263       85.76181       60.20289
H         74.22148       84.48935       61.37804
N         78.70425       86.67503       60.47403
C         80.13296       86.61562       60.18112
C         80.50852       85.14717       60.28531
O         80.32247       84.57283       61.35033
C         80.91865       87.54076       61.17228
C         82.41845       87.74717       60.82038
C         80.27136       88.94032       61.22213
C         83.28944       86.49988       60.87980
H         78.40819       86.41616       61.42758
H         80.32893       86.97550       59.14702
H         80.84122       87.11814       62.19921
H         82.85247       88.45763       61.55888
H         82.51145       88.20497       59.81067
H         79.21561       88.88461       61.56042
H         80.80388       89.58747       61.95239
H         80.30292       89.42555       60.22340
H         83.22605       86.02075       61.87849
H         82.99221       85.78698       60.10337
H         84.34573       86.77924       60.67863
N         80.97842       84.45700       59.20246
C         81.18086       83.00871       59.21001
C         82.63093       82.60338       59.05949
O         82.90659       81.42792       59.26120
C         80.36310       82.36047       58.07894
C         78.90009       82.63500       58.22758
O         78.23289       82.18029       59.30520
O         78.30768       83.26323       57.36713
H         81.15436       84.96751       58.32772
H         80.84865       82.58716       60.18439
H         80.50675       81.25853       58.07376
H         80.72122       82.76094       57.10291
N         83.61390       83.47695       58.69577
C         85.00773       83.06577       58.62507
C         85.86501       84.16563       58.00827
O         85.96315       85.22889       58.60635
C         85.54266       82.76775       60.04827
C         86.97857       82.31250       60.01074
C         87.99764       83.13725       60.51598
C         87.31092       81.06475       59.45892
C         89.33045       82.72205       60.45993
C         88.64425       80.64858       59.41482
C         89.65363       81.47798       59.91162
H         83.36964       84.43895       58.42936
H         85.06249       82.14623       58.00856
H         84.94382       81.99331       60.57063
H         85.44871       83.70070       60.64860
H         87.76305       84.10671       60.93837
H         86.53727       80.41447       59.06950
H         90.11239       83.36634       60.84015
H         88.89474       79.68394       58.99349
H         90.68608       81.15719       59.87141
N         86.55649       83.98429       56.84065
C         87.51923       84.94421       56.32518
C         86.89301       86.20353       55.74988
O         87.65251       87.06816       55.33345
C         88.29693       84.13286       55.28231
C         87.22796       83.20869       54.74209
C         86.50621       82.79097       56.02015
H         88.23223       85.25303       57.12217
H         88.85773       84.72850       54.53086
H         89.02477       83.48308       55.82163
H         86.53326       83.82928       54.13090
H         87.58837       82.36077       54.12197
H         85.47012       82.48426       55.75810
H         87.03605       81.97144       56.55435
N         85.54282       86.40671       55.69853
C         84.97391       87.65170       55.18524
C         85.30327       88.86222       56.05642
O         85.00189       89.97122       55.63582
C         83.44768       87.53656       54.98196
C         82.64292       87.33359       56.27780
C         81.18784       87.18611       55.94719
O         80.56022       86.02635       56.21018
O         80.57791       88.09956       55.41479
H         84.91032       85.65071       55.99181
H         85.41314       87.82091       54.17634
H         83.25393       86.68099       54.29750
H         83.08574       88.46040       54.47748
H         82.77762       88.19261       56.96989
H         82.98034       86.41399       56.79779
N         85.90153       88.74348       57.27738
C         86.21970       89.89712       58.09000
H         86.93113       90.55645       57.54852
H         85.29407       90.46273       58.32795
H         86.69239       89.57158       59.04129
H         86.13541       87.81829       57.66135
Ca        78.41007       85.69060       55.64435
O         79.33277       83.06648       54.09518
H         79.21254       82.44911       54.85970
H         78.64462       82.78648       53.44065
O         77.40565       88.65087       55.90486
H         78.11013       89.18506       55.46158
H         77.12822       87.99243       55.22002

Ca 1.0



