%chk=apoCaM-CA-Ng.loop1.water3.frame463.chk
%nprocshared=20
%mem=10GB
%nosave
#b3lyp/svp scf=(tight,noincore,xqc) Test 
#IOP(5/87=12) Density=Current Pop=(MK,readradii) iop(6/33=2) iop(6/42=6)

apoCaM-CA-Ng.loop1.water3.frame463 

   0  1 
C         64.25636       61.89637       69.14087
C         63.09681       62.08178       68.20664
O         62.41299       61.11977       67.88751
H         65.19316       62.21698       68.63736
H         64.10604       62.51869       70.04882
H         64.35708       60.83406       69.44612
N         62.81519       63.32399       67.73225
C         61.69565       63.62108       66.84113
C         61.89422       63.09074       65.41532
O         61.05141       63.38891       64.58476
C         61.50024       65.15634       66.75894
C         61.26054       65.77956       68.10693
O         62.01785       66.63935       68.52867
O         60.20131       65.40387       68.84871
H         63.40376       64.10381       68.06726
H         60.76137       63.19518       67.27099
H         60.61281       65.38611       66.13448
H         62.39524       65.62085       66.28631
N         62.97938       62.35389       65.03032
C         63.29659       62.06416       63.63046
C         63.31986       60.57399       63.31800
O         63.78152       59.82472       64.16742
C         64.71175       62.61038       63.35481
C         64.80048       64.13389       63.48598
C         66.23954       64.58665       63.22174
C         66.38135       66.10673       63.32708
N         67.76892       66.50890       63.09938
H         63.67220       62.05704       65.72926
H         62.57987       62.56304       62.96179
H         65.03919       62.33471       62.33541
H         65.42713       62.13392       64.06240
H         64.49960       64.44731       64.50934
H         64.11436       64.60750       62.74948
H         66.54801       64.26326       62.20268
H         66.91148       64.10635       63.96700
H         66.06376       66.44140       64.33957
H         65.72576       66.59366       62.57112
H         67.84165       67.54900       63.17094
H         68.39008       66.07543       63.82117
H         68.07868       66.21073       62.14568
N         62.99893       60.04373       62.08665
C         62.44197       60.73911       60.91626
C         63.28333       61.93654       60.47932
O         62.85241       63.06802       60.65236
C         60.94121       61.04958       61.10736
C         60.11016       59.79042       61.18942
O         58.89601       59.87443       61.27061
O         60.69446       58.57389       61.12429
H         63.17369       59.03427       61.96086
H         62.43545       60.04465       60.04867
H         60.58367       61.58975       60.20616
H         60.76189       61.67983       61.99993
N         64.49160       61.79026       59.86231
C         64.98068       60.49804       59.40938
C         66.29879       60.56965       58.65547
O         66.95641       61.59985       58.68343
H         65.01750       62.64660       59.62944
H         64.22114       60.13177       58.68753
H         65.08049       59.78488       60.25460
N         66.74496       59.52977       57.88851
C         66.02399       58.27148       57.70400
C         65.42698       58.20546       56.30792
O         65.70196       59.07136       55.48686
C         66.94118       57.07381       58.02439
C         68.15781       57.00381       57.13877
O         69.38823       57.09519       57.67855
O         68.03977       56.85185       55.93328
H         67.61444       59.66985       57.34926
H         65.16715       58.20405       58.40102
H         66.37438       56.12333       57.92847
H         67.27160       57.16487       59.08222
N         64.54079       57.21937       55.99222
C         63.87745       57.12256       54.70175
C         63.07360       58.36780       54.40566
O         63.31403       59.00266       53.38884
H         64.30053       56.51677       56.70840
H         63.18754       56.25088       54.71364
H         64.63446       56.95339       53.90532
N         62.11792       58.78838       55.27961
C         61.33635       60.00874       55.10511
C         61.71465       60.99734       56.19070
O         61.76981       60.62540       57.35484
C         59.81047       59.72500       55.06700
C         59.23648       59.03586       56.31136
O         59.47952       58.98770       53.91631
H         61.96848       58.23552       56.13756
H         61.56421       60.48949       54.12804
H         59.30021       60.71011       54.97645
H         59.92188       58.10190       53.98417
H         59.66789       58.02331       56.42623
H         59.43362       59.62629       57.22772
H         58.13602       58.93143       56.19975
N         61.97796       62.29548       55.86396
C         62.39830       63.30609       56.82680
C         61.22073       64.22402       57.10943
O         61.27214       65.41722       56.85440
C         63.71438       64.00959       56.34784
C         63.56694       64.81427       55.02078
C         64.82696       62.95232       56.21036
C         64.81134       65.63282       54.66742
H         61.83809       62.59194       54.88742
H         62.63344       62.83518       57.80648
H         64.00747       64.71827       57.15462
H         62.74972       65.55164       55.09907
H         63.32850       64.14009       54.17254
H         65.81363       63.41477       56.01159
H         64.92094       62.37994       57.14920
H         64.59682       62.23903       55.38935
H         65.68323       64.98443       54.45304
H         64.60885       66.23344       53.75551
H         65.06125       66.32881       55.49698
N         60.10410       63.69655       57.68457
C         58.87658       64.45272       57.91064
C         58.63814       64.75602       59.38059
O         57.62677       65.37608       59.67336
C         57.67315       63.69465       57.28958
C         57.36556       62.35353       57.98346
O         57.92631       63.47377       55.92630
H         60.13179       62.70908       57.97555
H         58.94258       65.44177       57.40657
H         56.77775       64.35063       57.39659
H         57.05426       63.26297       55.50121
H         56.47226       61.88717       57.51797
H         58.20511       61.63747       57.89270
H         57.14249       62.50726       59.05864
N         59.51406       64.36029       60.35332
C         59.36033       64.59123       61.79072
C         58.11778       63.87443       62.32657
O         57.31200       63.40843       61.53378
C         59.45128       66.11624       62.10801
C         59.75560       66.45068       63.56736
O         58.27500       66.78243       61.72873
H         60.36355       63.85322       60.07504
H         60.24481       64.10956       62.26106
H         60.32767       66.49897       61.52894
H         58.54176       67.62224       61.27160
H         59.89506       67.54814       63.67114
H         58.92840       66.16115       64.24184
H         60.70236       65.95986       63.87337
N         57.92403       63.68396       63.66172
C         56.75607       62.99479       64.20405
C         57.11892       61.65439       64.82944
O         56.21155       60.98759       65.30929
C         56.03187       63.91764       65.20514
C         55.44556       65.15112       64.49103
C         54.62318       66.06128       65.41563
C         55.47719       66.78999       66.46352
N         54.64777       67.67718       67.27945
H         58.63517       64.00964       64.32857
H         56.02981       62.74126       63.40058
H         56.73664       64.21246       66.01137
H         55.18446       63.36226       65.66404
H         54.75784       64.78525       63.69682
H         56.24757       65.74618       64.00283
H         53.82693       65.46533       65.91357
H         54.13066       66.83056       64.78135
H         56.25446       67.39363       65.94360
H         55.98461       66.05963       67.12827
H         53.93457       67.11949       67.80335
H         55.25503       68.18077       67.96547
H         54.16708       68.38224       66.67415
N         58.38951       61.14994       64.80719
C         58.70756       59.81686       65.30946
C         58.40849       59.72199       66.79194
O         59.00547       60.45296       67.57061
C         60.18898       59.47309       65.02535
C         60.64542       58.07350       65.48525
C         59.94178       56.93745       64.78921
O         58.62616       56.72352       64.97691
O         60.57640       56.16771       64.08586
H         59.14474       61.69699       64.37315
H         58.07854       59.09709       64.74935
H         60.83086       60.22345       65.53639
H         60.37767       59.55948       63.93501
H         60.51664       57.96302       66.58251
H         61.73315       57.99813       65.26597
N         57.48437       58.82783       67.24418
C         57.14422       58.66198       68.64172
H         56.06214       58.86582       68.78190
H         57.35437       57.61525       68.94642
H         57.72047       59.34271       69.30220
H         56.99071       58.22634       66.56772
Ca        59.58301       56.60755       61.08102
O         57.72771       54.13934       60.49723
H         58.44494       53.50448       60.74828
H         57.86156       54.29383       59.52841
O         57.02981       57.62506       62.36130
H         57.93606       57.88035       62.66443
H         56.42598       58.19536       62.89864
O         60.11114       56.15362       58.15012
H         60.51937       55.28449       57.91088
H         59.14324       56.03019       57.98008

Ca 1.0



