%chk=apoCaM-CA-Ng.loop4.water4.frame138.chk
%nprocshared=20
%mem=10GB
%nosave
#b3lyp/svp scf=(tight,noincore,xqc) Test 
#IOP(5/87=12) Density=Current Pop=(MK,readradii) iop(6/33=2) iop(6/42=6)

apoCaM-CA-Ng.loop4.water4.frame138 

   -3  1 
C         34.53752       40.85777       10.66562
C         34.84052       39.50330       11.22639
O         34.73327       38.53111       10.49558
H         35.44602       41.49254       10.72048
H         34.22480       40.77760        9.60126
H         33.71721       41.32837       11.24502
N         35.25901       39.36858       12.51948
C         35.61166       38.09174       13.13161
C         36.72293       37.40971       12.36614
O         36.52285       36.32484       11.86184
C         34.37164       37.21774       13.49466
C         33.18484       37.13176       12.55197
O         33.19839       36.52837       11.34388
O         32.12221       37.59852       12.93274
H         35.38082       40.22144       13.08632
H         36.07482       38.28928       14.12596
H         33.96126       37.69199       14.41602
H         34.70106       36.20181       13.80317
N         37.94504       38.01997       12.28734
C         39.16945       37.51348       11.65579
C         39.75841       36.33157       12.43858
O         40.81589       36.50331       13.02937
C         39.00403       37.26516       10.12747
C         40.35899       36.98211        9.41390
C         38.29146       38.45263        9.45232
C         41.35137       38.15460        9.38593
H         38.02580       38.95045       12.72713
H         39.90349       38.34170       11.75939
H         38.36014       36.37114        9.98332
H         40.14875       36.70184        8.35815
H         40.86411       36.12187        9.89477
H         37.26934       38.57949        9.85598
H         38.83825       39.40388        9.61547
H         38.19642       38.27645        8.36565
H         42.27194       37.84168        8.85103
H         40.93183       39.02512        8.84052
H         41.64922       38.46817       10.40566
N         39.12197       35.12839       12.53907
C         39.57552       34.04690       13.40370
C         40.85897       33.39276       12.91143
O         41.76962       33.28019       13.71976
C         38.45609       33.00001       13.63966
C         37.29356       33.60676       14.38440
O         37.48030       34.14422       15.60523
O         36.17435       33.59734       13.90188
H         38.25161       34.97101       12.03006
H         39.77738       34.46120       14.41873
H         38.85185       32.17634       14.27210
H         38.09409       32.55439       12.69484
N         41.04807       32.89236       11.65458
C         40.10813       33.02818       10.55023
C         40.58135       32.29835        9.30140
O         41.78425       32.14047        9.14527
H         41.93780       32.39720       11.48978
H         39.97485       34.09636       10.29697
H         39.14495       32.65180       10.86258
N         39.74903       31.87044        8.30128
C         38.29625       31.96305        8.24050
C         37.84884       33.41462        8.34143
O         37.21902       33.76616        9.32781
C         37.62416       30.98899        9.25723
C         36.15178       30.76332        9.02098
O         35.47813       29.92317        9.82958
O         35.56359       31.30214        8.09797
H         40.19698       31.43739        7.48259
H         37.97869       31.57171        7.24903
H         37.72940       31.31133       10.30331
H         38.11138       29.99552        9.16357
N         38.08860       34.34032        7.36424
C         38.68453       34.07818        6.06271
C         40.19191       34.02902        6.06861
O         40.81349       34.19179        7.10745
H         37.71204       35.28584        7.50787
H         38.42505       34.92803        5.39355
H         38.24099       33.16738        5.60994
N         40.84738       33.87430        4.88280
C         42.29733       33.88074        4.74791
C         42.78474       35.18713        4.13310
O         43.99504       35.34576        4.04575
C         42.79372       32.65315        3.93729
C         42.88529       31.34544        4.75189
C         41.59837       30.71117        5.20979
N         41.65147       29.61301        6.00046
O         40.51451       31.16171        4.87516
H         40.28642       33.80642        4.01836
H         42.78930       33.86254        5.74568
H         43.84738       32.84890        3.64078
H         42.21123       32.52573        2.99814
H         43.51590       31.54949        5.64451
H         43.41291       30.58666        4.13341
H         42.55945       29.22019        6.29219
H         40.78814       29.16028        6.33454
N         41.93663       36.20059        3.77352
C         42.41995       37.53031        3.40174
C         42.05389       37.94554        1.98589
O         42.48397       39.02575        1.60165
C         41.96593       38.58667        4.45014
C         42.55759       38.26784        5.83189
C         40.43818       38.72421        4.55087
H         40.91940       36.06430        3.83618
H         43.53242       37.54875        3.41026
H         42.37710       39.57426        4.14296
H         43.66629       38.21676        5.77223
H         42.29189       39.06738        6.55493
H         42.17700       37.29787        6.21773
H         40.18011       39.53327        5.26709
H         40.00400       38.98648        3.56378
H         39.96851       37.78799        4.91651
N         41.34722       37.15055        1.12568
C         41.18232       37.50311       -0.28501
C         39.73669       37.58738       -0.74653
O         39.54970       37.90078       -1.91408
C         41.92834       36.46507       -1.15000
C         43.38147       36.33493       -0.76279
N         44.22190       37.39337       -0.83847
O         43.80394       35.25547       -0.37635
H         40.99945       36.23247        1.44018
H         41.62601       38.50002       -0.49510
H         41.87564       36.75689       -2.22183
H         41.43125       35.47575       -1.03658
H         43.88992       38.31264       -1.16320
H         45.21165       37.29316       -0.56836
N         38.66545       37.33867        0.06619
C         37.29339       37.35052       -0.45134
C         36.25011       37.26942        0.64637
O         36.44060       36.53968        1.60701
C         37.07437       36.23806       -1.51646
C         37.49491       34.84641       -1.08119
C         38.62573       34.25151       -1.67203
C         36.77639       34.12016       -0.11461
C         39.03826       32.97178       -1.29353
C         37.19105       32.83785        0.26262
C         38.32588       32.26080       -0.32482
O         38.73726       31.02607        0.02798
H         38.82466       37.13096        1.06244
H         37.12079       38.32715       -0.95614
H         37.67104       36.51341       -2.40842
H         36.01916       36.22716       -1.86584
H         39.19726       34.78054       -2.42457
H         35.88787       34.53058        0.34152
H         39.91361       32.53279       -1.75588
H         36.62710       32.29196        1.00857
H         38.27235       30.49780        0.69229
N         35.06839       37.94832        0.48844
C         33.91159       37.91155        1.38222
C         34.06325       38.80781        2.60610
O         33.14668       39.57369        2.87404
C         33.47291       36.46637        1.71058
C         32.07706       36.42188        2.35433
C         31.62805       35.00462        2.56647
O         32.32766       34.18569        3.37455
O         30.62281       34.58961        2.01110
H         34.93893       38.47845       -0.38700
H         33.06214       38.34575        0.80435
H         34.20533       35.96843        2.37937
H         33.42031       35.89979        0.75394
H         31.35062       36.93318        1.68319
H         32.08332       36.94832        3.33197
N         35.17307       38.78241        3.39634
C         35.30515       39.56792        4.62022
C         35.26731       41.07755        4.40527
O         35.24574       41.79092        5.40025
C         36.61463       39.20515        5.36613
C         36.80054       37.70993        5.69447
C         35.66178       37.15302        6.49753
O         35.84943       36.79995        7.77973
O         34.56431       36.99850        5.98681
H         35.93757       38.15514        3.14736
H         34.44177       39.31968        5.27269
H         36.64250       39.76747        6.32617
H         37.48629       39.53055        4.75633
H         37.74327       37.61686        6.27015
H         36.93478       37.09039        4.78409
N         35.25685       41.65210        3.16930
C         35.19146       43.08841        3.00383
H         34.25930       43.47999        3.46578
H         36.07052       43.56742        3.48518
H         35.18779       43.34770        1.92441
H         35.29865       41.07550        2.31843
Ca        34.76480       35.52248       10.07342
O         34.17497       34.25861        7.25831
H         34.45769       34.17351        6.31361
H         34.77274       33.64431        7.75053
O         32.51090       36.89386        8.34378
H         32.98442       37.69687        8.01068
H         31.65262       36.88886        7.85080
O         32.09253       33.89015        9.81408
H         32.39134       32.99501       10.11333
H         31.28545       34.07672       10.35628
O         34.76718       33.07584       11.53287
H         34.78144       32.12120       11.27857
H         35.69865       33.38034       11.39350

Ca 1.0



