%chk=apoCaM-CA-Ng.loop2.water4.frame101.chk
%nprocshared=20
%mem=10GB
%nosave
#b3lyp/svp scf=(tight,noincore,xqc) Test 
#IOP(5/87=12) Density=Current Pop=(MK,readradii) iop(6/33=2) iop(6/42=6)

apoCaM-CA-Ng.loop2.water4.frame101 

   -2  1 
C         45.03001       29.11491       95.99872
C         45.90520       27.89847       95.90898
O         46.83013       27.89644       95.10884
H         44.20306       28.96630       96.72485
H         45.63280       29.98991       96.32102
H         44.58856       29.32590       95.00223
N         45.68799       26.82473       96.72070
C         46.50129       25.61625       96.65565
C         46.21985       24.83368       95.38435
O         47.12121       24.15999       94.90926
C         46.26540       24.73349       97.89547
C         47.14216       23.50951       97.89840
O         46.58649       22.28342       97.92460
O         48.35813       23.62051       97.87717
H         44.93522       26.88056       97.42437
H         47.57342       25.91946       96.67856
H         45.19813       24.42725       97.94121
H         46.49951       25.32776       98.80579
N         44.99079       24.86362       94.78562
C         44.67366       24.16342       93.54629
C         45.56782       24.68976       92.43658
O         45.52774       25.89364       92.22312
C         44.70387       22.64082       93.75156
H         44.24129       25.43373       95.20536
H         43.62571       24.41370       93.26402
H         44.38379       22.12497       92.82071
H         45.71167       22.27703       94.03613
H         43.99083       22.36091       94.55624
N         46.39191       23.88952       91.69024
C         47.25875       24.42762       90.64746
C         48.71598       24.07015       90.90992
O         49.43087       23.73158       89.97520
C         46.77622       23.92905       89.26981
C         45.36413       24.36407       88.99301
O         45.08892       25.55136       88.92643
O         44.39647       23.44492       88.81340
H         46.41003       22.87145       91.84217
H         47.21476       25.53812       90.63978
H         46.83073       22.81808       89.24652
H         47.42566       24.33185       88.46292
N         49.24341       24.16011       92.16672
C         50.65688       23.94504       92.44093
C         51.51885       25.09835       91.95106
O         52.73419       24.99116       92.02630
H         48.62774       24.38448       92.95832
H         50.97566       22.98656       91.97373
H         50.81864       23.85691       93.53652
N         50.96080       26.23834       91.44967
C         51.72391       27.35982       90.91367
C         52.56893       28.02738       91.98245
O         52.03009       28.47763       92.98489
C         50.75809       28.39141       90.29761
C         49.98717       27.77929       89.15188
N         48.64227       27.64811       89.21050
O         50.58941       27.38336       88.16523
H         49.93532       26.31673       91.42362
H         52.38242       26.99012       90.09776
H         51.32054       29.27034       89.91599
H         50.06059       28.74187       91.08673
H         48.11701       27.96271       90.03710
H         48.12528       27.21457       88.43149
N         53.91787       28.13867       91.81450
C         54.78744       28.79126       92.77823
C         54.52732       30.27786       92.87851
O         54.03249       30.87248       91.92993
H         54.35405       27.73379       90.97272
H         55.84641       28.67083       92.46034
H         54.67709       28.30102       93.76840
N         54.91385       30.95862       93.99634
C         54.79074       32.41213       94.12192
C         53.33798       32.89223       94.15820
O         53.12902       34.09628       94.09805
C         55.59315       32.95017       95.34317
C         55.03613       32.52969       96.71355
O         56.95152       32.59890       95.22806
H         55.35463       30.41779       94.75387
H         55.27055       32.85474       93.22053
H         55.54962       34.06111       95.32197
H         57.05859       31.65301       95.50867
H         55.67300       32.94814       97.52145
H         54.02313       32.94381       96.84922
H         55.00095       31.42648       96.82644
N         52.29083       32.02169       94.26710
C         50.88462       32.42338       94.26979
C         50.15139       31.74311       93.12591
O         50.75188       30.97208       92.39010
C         50.20904       32.07481       95.63718
C         50.21934       30.54660       95.92191
C         50.86124       32.87918       96.76956
C         49.45784       30.15003       97.18559
H         52.48628       31.01632       94.35275
H         50.78608       33.51884       94.11533
H         49.15055       32.40801       95.59613
H         51.25984       30.17192       96.01397
H         49.73173       30.01751       95.07509
H         51.90192       32.54877       96.91888
H         50.84784       33.96414       96.52913
H         50.31256       32.75124       97.72364
H         48.40327       30.49195       97.12418
H         49.46825       29.04401       97.28473
H         49.93635       30.57217       98.09207
N         48.82271       31.96432       92.94184
C         48.01627       31.20377       92.00230
C         47.93976       31.92552       90.67226
O         48.18829       31.31099       89.64541
C         46.62528       30.95998       92.61509
C         45.85047       29.95123       91.82241
O         46.30849       28.69153       91.69938
O         44.79510       30.25838       91.30444
H         48.33750       32.62841       93.56450
H         48.46195       30.19504       91.86212
H         46.06930       31.92110       92.69231
H         46.73867       30.54309       93.63976
N         47.65538       33.25844       90.63458
C         47.57371       34.04735       89.41040
C         46.31455       34.90461       89.45710
O         46.15960       35.64682       90.41466
C         48.84149       34.90658       89.22289
C         49.19436       35.79330       90.39015
C         48.75460       37.12633       90.43741
C         50.00016       35.29677       91.42963
C         49.10457       37.94436       91.51592
C         50.35314       36.12060       92.50140
C         49.90382       37.44193       92.54630
H         47.53775       33.75467       91.53081
H         47.55321       33.37756       88.52761
H         48.73729       35.51603       88.29779
H         49.70525       34.23133       89.03287
H         48.13932       37.52932       89.64247
H         50.35959       34.27505       91.40479
H         48.75949       38.96921       91.55125
H         50.97785       35.73840       93.29632
H         50.17884       38.07690       93.37810
N         45.36425       34.87894       88.47249
C         44.12022       35.63616       88.51776
C         43.29773       35.37156       89.76946
O         42.90574       36.31901       90.43635
C         43.36014       35.14934       87.27378
C         44.49107       34.87799       86.31253
C         45.50064       34.17270       87.21547
H         44.36267       36.71925       88.42509
H         42.88531       34.16106       87.46674
H         42.57558       35.84828       86.91353
H         44.21986       34.31755       85.39329
H         44.91347       35.86658       86.01568
H         45.26188       33.09880       87.37715
H         46.50290       34.29636       86.74981
N         42.99251       34.09347       90.13760
C         42.13428       33.75573       91.27557
C         42.72483       34.17204       92.61976
O         42.00826       34.09903       93.60924
C         41.90246       32.23155       91.32457
C         41.17703       31.66589       90.09014
C         41.28916       30.16967       90.09423
O         40.29833       29.46060       90.15840
O         42.51689       29.61918       90.02209
H         43.37004       33.33043       89.55609
H         41.15906       34.27437       91.14137
H         41.31434       31.94479       92.22488
H         42.90554       31.77226       91.41680
H         41.64077       32.01310       89.14509
H         40.11668       31.99986       90.09919
N         44.01884       34.57319       92.75536
C         44.57995       34.94803       94.03481
H         45.64972       35.22239       93.91277
H         44.03237       35.82150       94.44788
H         44.51173       34.09568       94.74401
H         44.64059       34.59025       91.94155
Ca        42.99855       27.42096       90.14030
O         45.55811       28.94305       88.37007
H         46.26920       29.39155       88.89182
H         46.04502       28.42851       87.67849
O         41.22438       25.42527       88.94129
H         41.05539       26.34398       88.61181
H         42.04109       25.13715       88.46120
O         42.98890       28.16129       86.94598
H         42.52228       28.00647       86.08694
H         42.39306       28.77584       87.44298
O         42.89088       27.87868       93.09072
H         42.65920       27.28988       93.85203
H         42.14158       28.52394       93.03566

Ca 1.0



