%chk=apoCaM-CA-Ng.loop3.water5.frame390.chk
%nprocshared=20
%mem=10GB
%nosave
#b3lyp/svp scf=(tight,noincore,xqc) Test 
#IOP(5/87=12) Density=Current Pop=(MK,readradii) iop(6/33=2) iop(6/42=6)

apoCaM-CA-Ng.loop3.water5.frame390 

   0  1 
C         23.09842      100.89568       32.91783
C         24.33122      101.74492       32.83286
O         25.11056      101.73507       33.77236
H         22.46194      101.01213       32.01576
H         23.38151       99.82871       33.02589
H         22.50520      101.20643       33.80465
N         24.56416      102.52613       31.73859
C         25.68029      103.46075       31.61486
C         25.51837      104.55225       32.66062
O         26.39633      104.77495       33.48339
C         27.05152      102.74001       31.66060
C         27.21749      101.68824       30.59025
O         28.36962      100.99545       30.52183
O         26.33026      101.45139       29.78449
H         23.89111      102.49441       30.95751
H         25.60804      103.96214       30.62315
H         27.20726      102.25768       32.64622
H         27.85597      103.49429       31.52328
N         24.35198      105.25898       32.67494
C         24.01935      106.31087       33.63647
C         23.99378      105.84794       35.09039
O         23.88105      106.70341       35.95863
C         22.63568      106.92787       33.30255
C         21.49575      105.88320       33.36469
C         20.12258      106.50448       33.11064
C         19.04788      105.40643       33.07837
N         17.71624      105.97545       32.88683
H         23.67727      105.03866       31.92967
H         24.79857      107.10028       33.54929
H         22.66859      107.37108       32.28360
H         22.42293      107.74985       34.02153
H         21.47644      105.39464       34.36269
H         21.65883      105.09683       32.60094
H         20.12430      107.03766       32.13505
H         19.89877      107.23260       33.92054
H         19.06506      104.83173       34.03131
H         19.26889      104.70235       32.24390
H         17.68018      106.51844       31.99390
H         17.01828      105.19809       32.84050
H         17.47720      106.59791       33.69241
N         24.05193      104.53207       35.44337
C         24.02511      104.08470       36.83508
C         25.23322      104.65283       37.58831
O         26.16387      105.13489       36.95540
C         23.95263      102.53347       36.84113
C         23.94451      101.86487       38.18094
O         23.03645      101.12115       38.51584
O         25.02921      102.00035       38.94960
H         24.08509      103.82373       34.70164
H         23.09872      104.48564       37.30259
H         24.84022      102.13664       36.30329
H         23.04457      102.22235       36.27839
N         25.25213      104.69440       38.95230
C         26.34167      105.28397       39.71668
C         27.64783      104.56971       39.46317
O         28.57871      105.19756       38.97910
H         24.44262      104.33190       39.47588
H         26.10621      105.22929       40.80112
H         26.43399      106.35802       39.44241
N         27.77409      103.24252       39.74706
C         28.97174      102.46147       39.45789
C         28.71777      101.46505       38.33126
O         29.12749      100.31719       38.42329
C         29.54634      101.82603       40.75068
C         28.56045      100.98405       41.59081
N         29.20876      100.48201       42.79440
O         27.98541       99.91772       40.89686
H         26.96855      102.76988       40.15923
H         29.76098      103.12981       39.05096
H         29.87729      102.65789       41.40974
H         30.44536      101.22341       40.49743
H         29.99916       99.85260       42.52081
H         28.50806       99.90519       43.31042
N         28.10753      101.88546       37.18617
C         27.97106      101.09665       35.96595
C         27.12636       99.83260       36.03344
O         26.96334       99.22389       34.98276
H         27.78140      102.86211       37.13826
H         28.98528      100.82410       35.60244
H         27.50765      101.75167       35.19660
N         26.58688       99.33865       37.18233
C         25.81236       98.09933       37.22477
C         25.68819       97.61229       38.65791
O         25.17209       98.33389       39.49714
C         24.41159       98.30427       36.61450
C         23.55476       97.08177       36.85122
C         23.87466       95.84796       36.26145
C         22.45785       97.16303       37.72490
C         23.11035       94.71233       36.54943
C         21.70283       96.02714       38.01842
C         22.02836       94.79576       37.43378
O         21.31651       93.68820       37.72217
H         26.76342       99.82726       38.06879
H         26.35403       97.31209       36.65300
H         24.46795       98.54092       35.53111
H         23.95409       99.17748       37.12094
H         24.72182       95.76289       35.59248
H         22.20288       98.10121       38.20128
H         23.36953       93.76314       36.09830
H         20.87298       96.10498       38.70930
H         20.57565       93.70288       38.34505
N         26.14541       96.37996       39.00451
C         26.25623       95.93926       40.38582
C         27.59490       96.44650       40.88690
O         27.62701       97.13345       41.89609
C         26.06283       94.39932       40.50636
C         24.65143       94.01674       39.97822
C         26.23689       93.95439       41.97280
C         24.34458       92.51772       40.00097
H         26.59018       95.79797       38.27615
H         25.45523       96.40318       41.00884
H         26.83424       93.88546       39.89079
H         24.56431       94.34675       38.92352
H         23.86956       94.54365       40.56905
H         26.15794       92.85334       42.07157
H         27.24127       94.22802       42.35048
H         25.47234       94.43232       42.62241
H         23.33850       92.34474       39.56206
H         25.09372       91.95870       39.40270
H         24.32260       92.12219       41.03654
N         28.72999       96.24310       40.15324
C         29.99686       96.88171       40.49797
C         30.60338       96.31483       41.76222
O         31.46616       96.96887       42.33486
C         31.00824       96.74745       39.34990
O         30.48686       97.28729       38.16503
H         28.66649       95.70474       39.27752
H         29.79626       97.96622       40.64526
H         31.23893       95.67503       39.17440
H         31.96891       97.25003       39.60964
H         30.65715       98.26373       38.19763
N         30.23071       95.09402       42.24228
C         30.75840       94.48366       43.45199
C         30.42867       95.34328       44.65847
O         31.30578       95.67188       45.44181
C         32.26137       94.18487       43.30719
H         29.52428       94.54759       41.72696
H         30.24009       93.50930       43.59077
H         32.85516       95.11438       43.18645
H         32.63575       93.64868       44.20388
H         32.43254       93.54329       42.41651
N         29.14572       95.77328       44.82921
C         28.71424       96.61961       45.93073
C         27.48822       96.01432       46.57275
O         26.50613       95.79084       45.88079
C         28.38882       98.01144       45.40153
H         28.44667       95.52627       44.11377
H         29.52313       96.74406       46.68291
H         28.05548       98.66880       46.23310
H         29.30625       98.44887       44.95450
H         27.59269       97.96675       44.63020
N         27.48013       95.72290       47.90461
C         26.34841       95.11795       48.59731
C         26.06849       93.74871       48.00498
O         24.95663       93.47967       47.56595
C         25.10288       96.04170       48.58309
C         25.39729       97.42927       49.17101
C         24.15872       98.27947       49.19045
O         23.68318       98.75118       50.35874
O         23.58290       98.55556       48.14959
H         28.32307       95.92319       48.46215
H         26.63805       94.96758       49.66166
H         24.30013       95.55961       49.18449
H         24.72170       96.16581       47.54706
H         26.16970       97.94550       48.56077
H         25.78080       97.31737       50.20789
N         27.06850       92.82932       47.94052
C         26.87828       91.52242       47.35285
H         26.56583       91.62741       46.29153
H         27.83036       90.95161       47.38609
H         26.10281       90.96192       47.91592
H         28.00338       93.07125       48.30440
Ca        25.87994      100.67199       40.52708
O         22.75604      102.77758       41.31741
H         22.50319      103.45759       40.64427
H         21.94590      102.67307       41.87675
O         22.80185       98.73015       41.13725
H         21.96979       98.81163       40.60735
H         22.55463       98.15289       41.90253
O         25.30479       98.62940       43.37405
H         25.48728       98.66142       42.40221
H         24.93622       97.72351       43.52716
O         25.86051      103.10336       42.65569
H         25.37204      103.85306       43.07947
H         26.22015      102.57822       43.41400
O         23.46414      100.94610       43.68166
H         22.94487      100.17735       44.02776
H         23.06550      101.73582       44.12609

Ca 1.0



