%chk=apoCaM-CA-Ng.loop3.water5.frame353.chk
%nprocshared=20
%mem=10GB
%nosave
#b3lyp/svp scf=(tight,noincore,xqc) Test 
#IOP(5/87=12) Density=Current Pop=(MK,readradii) iop(6/33=2) iop(6/42=6)

apoCaM-CA-Ng.loop3.water5.frame353 

   0  1 
C         84.10380       62.96223       45.24047
C         85.29169       62.16534       44.78415
O         85.27189       61.66564       43.67015
H         83.20255       62.31317       45.23941
H         84.24801       63.35385       46.27012
H         83.93865       63.81867       44.55500
N         86.36321       61.99411       45.60939
C         87.54008       61.18931       45.29665
C         87.13295       59.73052       45.11776
O         87.45611       59.10684       44.11574
C         88.31465       61.79282       44.09996
C         89.66989       61.17411       43.86994
O         90.36604       61.58356       42.95508
O         90.13945       60.19423       44.66756
H         86.33918       62.43801       46.54069
H         88.20794       61.23908       46.18653
H         88.47859       62.87450       44.29762
H         87.71445       61.69766       43.17101
N         86.38013       59.13968       46.08862
C         85.92830       57.74549       46.07544
C         85.05800       57.35550       44.88115
O         84.73744       56.17966       44.77039
C         85.17752       57.43912       47.39773
C         83.86599       58.24530       47.56775
C         83.31800       58.09787       48.99642
C         82.08319       58.97536       49.27252
N         80.90229       58.53702       48.52870
H         86.15146       59.72105       46.90863
H         86.83904       57.10779       46.04000
H         85.87170       57.68896       48.22988
H         84.94566       56.35370       47.47063
H         83.12231       57.90663       46.81557
H         84.05316       59.32564       47.40105
H         84.11345       58.43713       49.69602
H         83.08816       57.03427       49.22144
H         82.31131       60.03846       49.03297
H         81.85501       58.91732       50.36000
H         81.05584       58.61984       47.49941
H         80.67047       57.54864       48.78013
H         80.09399       59.14629       48.79253
N         84.62249       58.26174       43.96009
C         83.77719       57.90162       42.82319
C         84.48744       56.92344       41.88669
O         85.69021       56.72972       42.00425
C         83.33681       59.20916       42.11781
C         82.36288       59.05325       40.98553
O         81.11138       59.53516       41.10045
O         82.72255       58.58090       39.92448
H         84.85743       59.25112       44.09215
H         82.87153       57.40055       43.22995
H         84.22956       59.76334       41.75470
H         82.84385       59.84188       42.88815
N         83.77243       56.22832       40.95608
C         84.35238       55.26004       40.04069
C         85.37833       55.89517       39.13730
O         86.51608       55.44627       39.14964
H         82.75303       56.36252       40.91409
H         83.54984       54.81953       39.41392
H         84.81345       54.43233       40.62394
N         85.05906       56.96487       38.34848
C         86.04414       57.65203       37.52248
C         86.35396       59.03228       38.08978
O         86.28801       60.01661       37.36654
C         85.62552       57.71289       36.03306
C         84.35415       58.54091       35.79537
N         84.33445       59.11454       34.45560
O         83.21676       57.75629       36.00328
H         84.10056       57.33288       38.37690
H         87.00902       57.10134       37.54951
H         85.50391       56.69738       35.59507
H         86.46603       58.20084       35.49132
H         84.40053       58.36179       33.73509
H         83.43458       59.63134       34.33386
N         86.77745       59.16673       39.37980
C         87.32270       60.41286       39.90347
C         86.38820       61.61140       39.91049
O         86.87914       62.70338       40.15232
H         86.81670       58.33122       39.98281
H         88.19469       60.67312       39.26497
H         87.70086       60.25306       40.93626
N         85.05120       61.50429       39.67282
C         84.14707       62.65040       39.58048
C         83.40445       62.53623       38.26739
O         82.70059       61.55601       38.08199
C         83.16569       62.62999       40.76498
C         82.03792       63.62724       40.63253
C         82.26657       65.01294       40.65890
C         80.72496       63.15270       40.47278
C         81.19211       65.90404       40.52954
C         79.65941       64.03966       40.33580
C         79.88754       65.42035       40.36564
O         78.86249       66.28647       40.23714
H         84.64438       60.56713       39.54372
H         84.70583       63.61140       39.61269
H         83.71196       62.79427       41.71832
H         82.72963       61.61955       40.80831
H         83.26905       65.40249       40.78340
H         80.52405       62.09055       40.44465
H         81.37180       66.97130       40.55463
H         78.65787       63.64903       40.20660
H         77.94966       65.98508       40.11934
N         83.54543       63.47945       37.29429
C         82.92827       63.34325       35.97670
C         83.99579       62.93947       34.96412
O         83.67431       62.16013       34.07871
C         82.08750       64.59533       35.59863
C         81.04898       64.87797       36.72195
C         81.38539       64.38154       34.24075
C         80.19305       66.12510       36.49519
H         84.15689       64.28922       37.47338
H         82.21360       62.48962       35.99498
H         82.76860       65.47035       35.51273
H         81.58934       65.03655       37.67878
H         80.37543       64.00179       36.84965
H         80.82007       65.28333       33.93220
H         82.12501       64.18883       33.43712
H         80.68337       63.52095       34.29511
H         80.83805       67.02088       36.37787
H         79.54078       66.01434       35.60591
H         79.53043       66.27779       37.37347
N         85.31467       63.26230       35.13532
C         86.38585       62.60861       34.38609
C         86.40316       62.91874       32.90095
O         87.13220       62.23851       32.19347
C         87.76099       62.96358       34.97964
O         87.80520       62.67416       36.35089
H         85.58331       63.89571       35.90040
H         86.23743       61.51088       34.50472
H         87.95622       64.04909       34.84595
H         88.57602       62.41663       34.45179
H         87.91334       61.69219       36.42861
N         85.64850       63.91303       32.34847
C         85.61821       64.20043       30.91655
C         85.12756       62.98642       30.14146
O         85.59667       62.74061       29.03687
C         86.99255       64.69134       30.42137
H         85.04720       64.49038       32.95359
H         84.89004       65.02588       30.75364
H         87.76556       63.89948       30.51180
H         86.93803       64.98843       29.35284
H         87.32216       65.57007       31.01381
N         84.18910       62.16339       30.68890
C         83.70828       60.94559       30.06072
C         82.22799       61.07704       29.81547
O         81.47555       61.30383       30.75435
C         83.99743       59.74125       30.95575
H         83.80091       62.39824       31.61315
H         84.23288       60.76579       29.09645
H         85.09082       59.64708       31.12968
H         83.48489       59.85438       31.93186
H         83.63646       58.80958       30.46857
N         81.74851       60.97135       28.54879
C         80.35738       61.15342       28.16535
C         79.89568       62.56468       28.50359
O         78.80078       62.73683       29.02271
C         79.43232       60.07804       28.78789
C         79.90849       58.64389       28.52252
C         78.92883       57.65286       29.08529
O         79.31058       56.79526       30.05095
O         77.78225       57.61735       28.66680
H         82.41647       60.78013       27.78543
H         80.31555       61.04673       27.05836
H         78.41387       60.21188       28.36123
H         79.36525       60.22212       29.88850
H         80.89897       58.48940       29.00477
H         80.01297       58.46743       27.43146
N         80.71330       63.62885       28.26065
C         80.35314       64.99770       28.57199
H         79.31238       65.08823       28.94812
H         81.04106       65.39272       29.34929
H         80.44848       65.61754       27.65705
H         81.65314       63.46672       27.86879
Ca        81.80459       59.05849       37.22141
O         78.86305       57.72132       38.76040
H         77.95875       58.00513       39.04524
H         78.71893       56.85186       38.30897
O         81.47316       56.35117       38.50368
H         81.83574       55.62388       37.93934
H         81.03973       55.88906       39.26413
O         80.30385       56.96824       35.81382
H         79.64819       56.22844       35.77248
H         80.48878       57.19809       34.86893
O         79.26883       60.82999       38.31751
H         79.07998       61.69590       37.87608
H         78.62531       60.78853       39.06891
O         80.13042       60.64071       35.30633
H         80.64380       60.54835       34.46493
H         79.51495       59.86486       35.31019

Ca 1.0



