%chk=apoCaM-CA-Ng.loop1.water3.frame1325.chk
%nprocshared=20
%mem=10GB
%nosave
#b3lyp/svp scf=(tight,noincore,xqc) Test 
#IOP(5/87=12) Density=Current Pop=(MK,readradii) iop(6/33=2) iop(6/42=6)

apoCaM-CA-Ng.loop1.water3.frame1325 

   0  1 
C         34.81108       48.32297      110.00530
C         36.13251       47.89784      110.56508
O         36.98323       48.74972      110.78332
H         34.00045       48.04359      110.70790
H         34.78995       49.42299      109.84539
H         34.64663       47.82217      109.02769
N         36.38943       46.57568      110.78759
C         37.68310       46.09187      111.25455
C         38.35732       45.35534      110.11744
O         38.79729       44.22260      110.26597
C         37.52590       45.23006      112.52536
C         36.91367       45.95964      113.69432
O         36.71869       45.29849      114.85068
O         36.59378       47.13576      113.61723
H         35.66172       45.88149      110.55796
H         38.34939       46.94119      111.49192
H         38.52725       44.86599      112.84339
H         36.88886       44.35062      112.28846
N         38.45661       45.98526      108.91757
C         39.12151       45.43095      107.74945
C         40.61665       45.31854      108.00985
O         41.12520       44.21531      107.87685
C         38.77943       46.25136      106.47979
C         37.26395       46.17318      106.20515
C         36.82764       47.04964      105.03129
C         35.31168       46.91564      104.81741
N         34.84743       47.79566      103.74794
H         38.02348       46.91688      108.83347
H         38.72150       44.40948      107.55269
H         39.32083       45.83057      105.60446
H         39.08092       47.31108      106.58064
H         36.69512       46.51536      107.09526
H         36.98954       45.11375      106.00562
H         37.36591       46.74694      104.10736
H         37.07416       48.10938      105.26291
H         34.77525       47.17834      105.75744
H         35.06738       45.86019      104.56135
H         33.81795       47.66191      103.62155
H         35.02855       48.79332      104.00479
H         35.33454       47.56391      102.85247
N         41.40930       46.34812      108.44194
C         40.98068       47.71872      108.72333
C         40.99377       47.98473      110.21603
O         41.43180       47.13498      110.97978
C         41.80781       48.71438      107.89579
C         43.27949       48.51152      108.07835
O         43.86473       48.72260      109.27285
O         43.94351       48.11378      107.13589
H         42.39642       46.11767      108.64108
H         39.93800       47.88019      108.43509
H         41.53651       49.76547      108.13074
H         41.56546       48.53473      106.82434
N         40.38202       49.09583      110.71251
C         40.13175       49.26564      112.13398
C         41.34017       49.65926      112.93168
O         42.37272       49.98401      112.36725
H         39.94598       49.76368      110.05732
H         39.70469       48.33028      112.54447
H         39.37977       50.07084      112.28261
N         41.23590       49.68709      114.29131
C         42.24371       50.25481      115.18086
C         41.57546       51.35431      116.01466
O         40.35282       51.41469      116.00474
C         42.83757       49.15036      116.09053
C         43.33830       47.91484      115.36657
O         44.31630       47.96779      114.43996
O         42.85719       46.82776      115.64345
H         40.36673       49.32726      114.71634
H         43.03191       50.72181      114.58131
H         42.04709       48.82221      116.80116
H         43.67629       49.55974      116.68298
N         42.23468       52.27861      116.77229
C         43.66591       52.49295      116.87552
C         44.26543       53.01482      115.59041
O         43.70698       53.92793      114.99779
H         41.64888       52.93010      117.31996
H         44.19451       51.60546      117.27159
H         43.81888       53.30362      117.62172
N         45.47325       52.55112      115.16299
C         46.17858       53.09892      113.99964
C         45.54502       52.63953      112.65123
O         44.38942       51.91586      112.87864
C         47.66667       52.67798      114.06216
C         48.51930       53.34436      112.98114
O         47.78827       51.28226      113.94995
H         45.94490       51.84939      115.75274
H         46.15768       54.20975      114.08508
H         48.08652       53.02218      115.03849
H         47.85317       50.90746      114.86664
H         48.47128       54.44903      113.08284
H         49.57696       53.02472      113.09396
H         48.17580       53.06227      111.96564
N         45.26629       53.77253      111.75226
C         44.70005       53.44595      110.41706
C         45.56160       52.45025      109.65033
O         45.64647       51.30488      110.06981
C         43.22118       52.91880      110.46455
C         42.28920       53.72969      111.40067
C         42.61688       52.81449      109.04990
C         42.14429       55.20834      111.05214
H         46.15923       54.29545      111.59890
H         44.67352       54.40623      109.85563
H         43.21791       51.88262      110.85519
H         42.66180       53.66450      112.44258
H         41.28039       53.25967      111.39109
H         41.58921       52.39462      109.10074
H         42.57857       53.80423      108.55098
H         43.21590       52.13078      108.41608
H         41.71832       55.34152      110.03798
H         41.45405       55.68143      111.78245
H         43.12479       55.72201      111.11972
N         46.16483       52.80109      108.47691
C         46.82397       51.82416      107.61300
C         48.31439       52.04377      107.45604
O         48.88541       51.30360      106.66756
C         46.09098       51.71230      106.24743
C         46.13381       52.97931      105.39496
O         44.74950       51.36695      106.45703
H         46.09984       53.77651      108.15242
H         46.75144       50.80600      108.05506
H         46.57716       50.90981      105.64117
H         44.74828       50.41605      106.73155
H         47.18134       53.26443      105.16762
H         45.60939       52.78373      104.43387
H         45.61763       53.81945      105.90142
N         49.03842       52.94119      108.19667
C         50.50808       52.96258      108.16161
C         51.01574       51.60165      108.63400
O         51.02401       51.33787      109.82897
C         51.10124       54.11385      109.01520
C         50.79744       55.48037      108.38587
O         50.58590       54.05452      110.32268
H         48.54309       53.57025      108.84702
H         50.83620       53.11984      107.10908
H         52.20889       53.99195      109.04468
H         51.05863       54.74389      110.85818
H         51.24337       55.53520      107.36950
H         49.70459       55.65621      108.31295
H         51.24898       56.28921      108.99940
N         51.26376       50.63174      107.70375
C         51.44054       49.20172      107.96479
C         50.24219       48.61498      108.71142
O         49.44502       49.37012      109.24211
C         52.77050       48.88852      108.66653
C         53.95078       49.54590      107.93377
C         55.29206       49.10525      108.52328
C         56.44934       49.88420      107.88379
N         57.73749       49.41749      108.39339
H         51.22969       50.89801      106.70768
H         51.47081       48.70964      106.96581
H         52.90247       47.78381      108.67890
H         52.75284       49.25261      109.71632
H         53.85094       50.65012      108.02492
H         53.93257       49.27546      106.85446
H         55.42132       48.01575      108.33911
H         55.30230       49.28829      109.61956
H         56.33049       50.96635      108.11823
H         56.42871       49.76184      106.77799
H         57.76910       49.50438      109.43514
H         57.88713       48.41980      108.11711
H         58.50054       50.00094      107.98050
N         50.00877       47.26848      108.74265
C         48.85494       46.69498      109.44627
C         47.55836       47.40424      109.07097
O         46.90138       47.88895      109.98163
C         48.68762       45.17142      109.23503
C         49.86698       44.34178      109.75389
C         49.57927       42.87565      109.58435
O         50.30163       42.18299      108.88581
O         48.52016       42.31791      110.20344
H         50.64659       46.64998      108.22223
H         49.00762       46.85079      110.53941
H         48.51613       44.92780      108.16802
H         47.77919       44.85786      109.79885
H         50.03072       44.54914      110.83293
H         50.79101       44.60328      109.19742
N         47.10144       47.56387      107.79683
C         47.73776       47.10382      106.58155
H         48.69199       46.58081      106.74845
H         47.04660       46.41627      106.05099
H         47.94250       47.97851      105.92992
H         46.22891       48.08864      107.67449
Ca        45.07305       49.90325      113.63897
O         44.31551       46.39368      111.87716
H         44.02481       46.41133      110.93121
H         43.49240       46.57947      112.39478
O         47.09014       47.16940      113.21089
H         47.99403       47.56898      113.16557
H         46.92408       47.05166      114.17961
O         47.85434       50.13704      111.46663
H         48.42311       49.36634      111.71213
H         48.49973       50.85990      111.26929

Ca 1.0



