%chk=apoCaM-CA-Ng.loop1.water3.frame754.chk
%nprocshared=20
%mem=10GB
%nosave
#b3lyp/svp scf=(tight,noincore,xqc) Test 
#IOP(5/87=12) Density=Current Pop=(MK,readradii) iop(6/33=2) iop(6/42=6)

apoCaM-CA-Ng.loop1.water3.frame754 

   0  1 
C        -12.03294       50.29712       26.64676
C        -11.48214       51.42300       25.82193
O        -12.24528       52.30847       25.46308
H        -12.84726       49.79058       26.08827
H        -11.24977       49.54991       26.89213
H        -12.44291       50.70287       27.59619
N        -10.15401       51.47461       25.51193
C         -9.55547       52.56804       24.74829
C         -8.70678       52.07907       23.53184
O         -8.73653       50.68596       23.40776
C         -8.75602       53.50259       25.68137
C         -7.63986       52.88188       26.48334
O         -7.36310       51.69846       26.39405
O         -6.94915       53.65339       27.34354
H         -9.54059       50.72975       25.87302
H        -10.36485       53.21950       24.34900
H         -9.47407       53.93417       26.41300
H         -8.33876       54.33885       25.08048
N         -9.19683       52.71430       22.29784
C         -8.50943       52.34787       21.04338
C         -7.10540       52.93232       20.99040
O         -6.96612       54.13865       21.14143
C         -9.35154       52.92084       19.87766
C         -8.88154       52.56200       18.45414
C         -9.09040       51.07557       18.11251
C         -8.73347       50.72584       16.65554
N         -9.57106       51.42869       15.67797
H         -9.18388       53.75521       22.41444
H         -8.48846       51.24181       20.94132
H         -9.35310       54.02995       19.96634
H        -10.40570       52.58234       19.98404
H         -7.82046       52.85669       18.30068
H         -9.50900       53.16801       17.76951
H        -10.15326       50.80067       18.28774
H         -8.45360       50.45382       18.77595
H         -8.87637       49.63087       16.51977
H         -7.66539       50.95233       16.46951
H         -9.38361       52.45586       15.69097
H         -9.34303       51.07810       14.71956
H        -10.58326       51.24607       15.86847
N         -6.02515       52.14714       20.71118
C         -4.67219       52.69994       20.57332
C         -3.69861       51.69529       19.95186
O         -4.00487       50.51088       19.93037
C         -4.15379       53.20204       21.94780
C         -4.14525       52.12737       23.00212
O         -4.87305       52.28757       24.12334
O         -3.46355       51.12402       22.86517
H         -6.19696       51.14741       20.52778
H         -4.74209       53.54736       19.86497
H         -4.79535       54.03205       22.30509
H         -3.13206       53.60856       21.87206
N         -2.48989       52.05104       19.41616
C         -1.96246       53.40149       19.23658
C         -2.69908       54.20542       18.18548
O         -3.69421       53.74679       17.64517
H         -1.88383       51.28481       19.08535
H         -0.92088       53.30500       18.85832
H         -1.90379       53.95315       20.18855
N         -2.22267       55.43062       17.81873
C         -2.79899       56.21041       16.72644
C         -2.68464       55.46959       15.39526
O         -3.71085       55.27774       14.75937
C         -2.25315       57.66307       16.66950
C         -0.76627       57.90296       16.57352
O          0.04461       56.99546       16.60910
O         -0.32141       59.17142       16.49787
H         -1.41039       55.80763       18.32876
H         -3.88623       56.34930       16.93100
H         -2.58734       58.18237       17.59374
H         -2.74203       58.17040       15.80876
N         -1.49668       54.98854       14.91833
C         -1.39115       54.22461       13.68185
C         -2.03002       52.84725       13.76787
O         -2.05074       52.15696       12.75938
H         -0.63050       55.14012       15.44400
H         -0.31768       54.06400       13.43927
H         -1.84358       54.81195       12.85412
N         -2.53951       52.36847       14.93911
C         -3.15057       51.05638       15.10978
C         -2.33037       50.27557       16.12758
O         -1.36639       50.81476       16.65618
C         -4.62263       51.23179       15.58617
C         -5.42963       52.16403       14.67095
O         -5.28413       49.99776       15.69583
H         -2.47350       52.94461       15.78002
H         -3.14614       50.50006       14.14703
H         -4.61414       51.69364       16.59467
H         -5.33979       49.60555       14.78497
H         -4.97224       53.16881       14.63796
H         -5.47939       51.75831       13.63955
H         -6.45889       52.28955       15.06172
N         -2.63663       48.98645       16.44204
C         -1.85002       48.20296       17.39087
C         -0.42726       48.12990       16.86984
O          0.48786       48.49725       17.59212
C         -2.48850       46.79386       17.61743
C         -3.89441       46.96141       18.26824
C         -1.58054       45.92069       18.50912
C         -4.65937       45.65282       18.47426
H         -3.42507       48.53572       15.96040
H         -1.83864       48.71410       18.38094
H         -2.59542       46.28160       16.63533
H         -4.53559       47.59795       17.62518
H         -3.79429       47.47178       19.25152
H         -0.58263       45.78357       18.04345
H         -1.44884       46.38501       19.50955
H         -1.99904       44.90216       18.63402
H         -5.66102       45.88040       18.89792
H         -4.79501       45.12787       17.50558
H         -4.14324       44.98549       19.19272
N         -0.18781       47.68814       15.60511
C          1.14217       47.62717       14.99371
C          1.12221       46.75904       13.73935
O          0.06273       46.31667       13.31384
C          1.72386       49.04489       14.68440
C          0.83809       49.85437       13.73280
O          1.90340       49.79218       15.85815
H         -1.00773       47.36499       15.07096
H          1.81758       47.09505       15.69988
H          2.71269       48.93885       14.18005
H          2.78052       49.52854       16.24240
H         -0.16414       50.02367       14.17734
H          1.30545       50.84486       13.54150
H          0.72202       49.33183       12.76098
N          2.29332       46.40836       13.13935
C          2.36395       45.43908       12.05478
C          3.05501       44.20309       12.60138
O          2.43108       43.15192       12.64175
C          3.02585       46.05507       10.79743
C          3.00660       45.07302        9.61949
O          4.34362       46.45657       11.06645
H          3.17754       46.77332       13.52522
H          1.33952       45.13292       11.74380
H          2.41986       46.94863       10.51645
H          4.60739       47.08791       10.34692
H          3.59200       44.15963        9.85580
H          1.96072       44.78192        9.38199
H          3.44467       45.55286        8.71884
N          4.32550       44.27242       13.09259
C          5.01051       43.15790       13.73550
C          5.45491       43.58259       15.13045
O          5.64604       44.77121       15.35452
C          6.22188       42.78057       12.86070
C          6.96505       41.52186       13.32908
C          8.16387       41.23967       12.41667
C          8.88978       39.95464       12.83189
N         10.06674       39.72977       11.99330
H          4.83708       45.16360       13.02642
H          4.33212       42.27990       13.81312
H          6.92440       43.64306       12.82348
H          5.85511       42.58965       11.82727
H          6.26262       40.65941       13.30845
H          7.34491       41.65719       14.36235
H          8.86983       42.09716       12.47901
H          7.82042       41.13582       11.36392
H          8.19440       39.09113       12.73313
H          9.20939       40.02927       13.89506
H         10.74650       40.51561       12.11552
H         10.52805       38.83701       12.28144
H          9.78748       39.65930       10.98781
N          5.70344       42.66226       16.10671
C          6.27240       43.04465       17.39584
C          5.36864       44.01007       18.16246
O          5.83326       45.10809       18.43444
C          6.66874       41.81076       18.24275
C          7.48080       42.21700       19.48396
C          7.88823       41.01245       20.28097
O          6.95035       40.21238       20.82326
O          9.07004       40.76035       20.45392
H          5.54339       41.66375       15.90236
H          7.23217       43.56656       17.17352
H          7.30787       41.14789       17.61812
H          5.78374       41.22541       18.55748
H          6.88136       42.88347       20.13949
H          8.38991       42.76993       19.15709
N          4.09496       43.73180       18.57316
C          3.35455       42.51396       18.31580
H          2.40969       42.76907       17.79289
H          3.89272       41.79403       17.67925
H          3.10521       42.02671       19.28222
H          3.59682       44.45549       19.11499
Ca        -6.71270       50.00744       24.22369
O         -3.95789       48.11345       24.36868
H         -3.59513       48.21177       23.45253
H         -3.18799       47.80339       24.90875
O         -6.64276       47.81306       22.26780
H         -6.47826       48.49619       21.57002
H         -7.55282       48.01524       22.60259
O         -4.44717       50.56875       26.98502
H         -3.69321       51.16632       27.21937
H         -4.97593       50.49798       27.81933

Ca 1.0



