%chk=apoCaM-CA-Ng.loop3.water2.frame602.chk
%nprocshared=20
%mem=10GB
%nosave
#b3lyp/svp scf=(tight,noincore,xqc) Test 
#IOP(5/87=12) Density=Current Pop=(MK,readradii) iop(6/33=2) iop(6/42=6)

apoCaM-CA-Ng.loop3.water2.frame602 

   0  1 
C         55.51674       36.47655      -16.75725
C         55.26236       37.90178      -17.14870
O         55.94825       38.41672      -18.01979
H         56.55137       36.37210      -16.37368
H         54.81189       36.14412      -15.96432
H         55.37571       35.82133      -17.64143
N         54.26143       38.59685      -16.55028
C         53.90976       39.96453      -16.90072
C         55.06547       40.90716      -16.56093
O         55.46146       40.96967      -15.40538
C         52.59801       40.30906      -16.16619
C         51.98320       41.60820      -16.54814
O         50.94115       41.96579      -16.02224
O         52.65810       42.45668      -17.32428
H         53.69806       38.11047      -15.83430
H         53.68907       39.99888      -17.99194
H         52.76579       40.30282      -15.06668
H         51.86957       39.52298      -16.41264
N         55.68123       41.63675      -17.53985
C         56.86571       42.46871      -17.30559
C         56.64002       43.57337      -16.28425
O         57.57116       43.87726      -15.55118
C         57.44370       43.04803      -18.62284
C         56.50363       44.03330      -19.33722
C         57.10724       44.54654      -20.65143
C         56.11650       45.47550      -21.36897
N         56.67232       45.97968      -22.62366
H         55.32570       41.54606      -18.50298
H         57.66167       41.80223      -16.90201
H         57.67246       42.20053      -19.30655
H         58.40313       43.56718      -18.39909
H         56.30098       44.90253      -18.67719
H         55.54688       43.52537      -19.56353
H         57.33943       43.68521      -21.31578
H         58.05010       45.09714      -20.43839
H         55.86334       46.33482      -20.70917
H         55.18219       44.91355      -21.58788
H         57.53113       46.54553      -22.43461
H         56.90399       45.18404      -23.26176
H         55.96114       46.58901      -23.08938
N         55.45084       44.23712      -16.19841
C         55.19672       45.31164      -15.24033
C         54.10706       44.94426      -14.22852
O         53.85673       45.74273      -13.33753
C         55.00089       46.65656      -15.99827
C         53.94622       46.70196      -17.08054
O         52.64142       46.62369      -16.78326
O         54.28136       46.79115      -18.25098
H         54.69435       43.97381      -16.84414
H         56.09492       45.47629      -14.60488
H         55.97460       46.85550      -16.49748
H         54.82338       47.48444      -15.28047
N         53.48732       43.72403      -14.23609
C         52.56160       43.26244      -13.20696
C         51.23566       43.99403      -13.12621
O         50.43363       43.59595      -12.29129
H         53.73748       43.03455      -14.95377
H         53.06504       43.31314      -12.21616
H         52.32574       42.19347      -13.40236
N         50.92665       45.06736      -13.90941
C         49.68468       45.82175      -13.78198
C         48.96658       45.95896      -15.11815
O         49.46749       45.49999      -16.13568
C         50.02711       47.20113      -13.17924
C         50.87338       48.04483      -14.10696
N         52.15246       48.35098      -13.79453
O         50.39723       48.45301      -15.15584
H         51.61727       45.42086      -14.57870
H         48.99380       45.31422      -13.07280
H         50.56918       47.01752      -12.22462
H         49.10574       47.76526      -12.92372
H         52.58136       48.00917      -12.92332
H         52.72262       48.91771      -14.43947
N         47.78096       46.62314      -15.17946
C         47.06069       46.90522      -16.41000
C         46.68039       45.65114      -17.15595
O         46.14351       44.73592      -16.54772
H         47.36910       46.97892      -14.30314
H         47.66568       47.57766      -17.05768
H         46.12724       47.44604      -16.14535
N         46.87727       45.56700      -18.50455
C         46.49997       44.38859      -19.28126
C         47.48124       43.25322      -19.03965
O         48.44790       43.44569      -18.31518
C         46.34390       44.75541      -20.78261
C         47.61982       45.15516      -21.49180
C         47.83302       46.49043      -21.87316
C         48.59281       44.19392      -21.81496
C         49.00621       46.85592      -22.54204
C         49.76132       44.55765      -22.48348
C         49.97468       45.89279      -22.84668
O         51.10004       46.25826      -23.49204
H         47.24596       46.39420      -18.99848
H         45.48426       44.07001      -18.95451
H         45.61338       45.59417      -20.82329
H         45.88059       43.91828      -21.34782
H         47.09589       47.25089      -21.64711
H         48.44694       43.15652      -21.57172
H         49.16186       47.88947      -22.82299
H         50.49536       43.79798      -22.72267
H         51.78998       45.61889      -23.72089
N         47.29496       42.04097      -19.63803
C         48.19177       40.89399      -19.50831
C         49.58177       41.17917      -20.08232
O         50.30197       42.01207      -19.55201
C         48.25650       40.37114      -18.03422
C         49.28348       39.21239      -17.90141
C         46.85289       39.92063      -17.58828
C         49.38590       38.62201      -16.49240
H         46.46254       41.91570      -20.23376
H         47.75626       40.06608      -20.11074
H         48.59016       41.18674      -17.35866
H         50.28917       39.60510      -18.15998
H         49.04187       38.39495      -18.61322
H         46.84866       39.61792      -16.52188
H         46.12260       40.74968      -17.68447
H         46.50942       39.06341      -18.20678
H         49.61005       39.41772      -15.75004
H         48.45288       38.10155      -16.20285
H         50.20167       37.86799      -16.47016
N         50.05246       40.41071      -21.11051
C         51.45525       40.37917      -21.51611
C         51.68078       40.50090      -23.02213
O         52.82083       40.31776      -23.43304
C         52.02520       39.03445      -21.02963
O         51.35913       37.96690      -21.65666
H         49.42868       39.69888      -21.51939
H         52.03959       41.17598      -21.01084
H         51.90484       38.98621      -19.92121
H         53.11190       38.96239      -21.24747
H         51.16962       37.28571      -20.96057
N         50.68798       40.79793      -23.91086
C         50.88931       40.75584      -25.36176
C         50.96452       42.15649      -25.94572
O         50.14160       42.97840      -25.56265
C         49.75980       39.96468      -26.01756
H         49.75189       41.05072      -23.55762
H         51.81815       40.20260      -25.57819
H         49.93362       39.90005      -27.11349
H         49.73050       38.93452      -25.60394
H         48.77994       40.45609      -25.83828
N         51.91659       42.55982      -26.84670
C         52.89691       41.70300      -27.52910
C         52.86586       41.95821      -29.04292
O         52.29118       42.95579      -29.44930
C         54.28034       42.03613      -26.95309
H         51.93889       43.56519      -27.08024
H         52.67712       40.63664      -27.37355
H         54.51900       43.10809      -27.12047
H         54.28034       41.84119      -25.85950
H         55.09735       41.43944      -27.39252
N         53.47640       41.14860      -29.97010
C         54.08912       39.85011      -29.69906
C         53.06152       38.77047      -29.38028
O         53.46072       37.70157      -28.94466
C         54.97940       39.38455      -30.88206
C         54.21562       39.10376      -32.19284
C         55.16474       38.67761      -33.27653
O         56.14320       39.50945      -33.68341
O         55.04692       37.58268      -33.80305
H         53.47607       41.49130      -30.94266
H         54.77200       39.95259      -28.84004
H         55.50964       38.45219      -30.58379
H         55.74975       40.16582      -31.06426
H         53.68355       40.00800      -32.54879
H         53.46448       38.30155      -32.02461
N         51.73028       38.94953      -29.62639
C         50.76155       37.90393      -29.37576
H         49.75038       38.24286      -29.68730
H         51.02234       36.99548      -29.96082
H         50.74064       37.65611      -28.29425
H         51.38735       39.82889      -30.03493
Ca        52.07804       44.51601      -16.85930
O         52.82063       43.75134      -20.25355
H         52.81772       44.47361      -20.93031
H         53.45467       43.08027      -20.61118
O         50.13036       46.68594      -19.15515
H         50.04025       47.31129      -19.91691
H         50.21248       47.27537      -18.36405

Ca 1.0



