%chk=apoCaM-CA-Ng.loop3.water3.frame597.chk
%nprocshared=20
%mem=10GB
%nosave
#b3lyp/svp scf=(tight,noincore,xqc) Test 
#IOP(5/87=12) Density=Current Pop=(MK,readradii) iop(6/33=2) iop(6/42=6)

apoCaM-CA-Ng.loop3.water3.frame597 

   0  1 
C         58.20041      115.82803       66.46539
C         58.74498      117.14008       65.97847
O         58.80462      117.34847       64.77531
H         57.15784      115.70252       66.10579
H         58.82530      114.99649       66.07955
H         58.19445      115.77754       67.57538
N         59.15325      118.08515       66.86869
C         59.66515      119.39268       66.47221
C         60.96218      119.20813       65.68094
O         61.89258      118.61499       66.20990
C         59.88918      120.23887       67.74834
C         60.08641      121.71167       67.52323
O         60.36570      122.43116       68.46846
O         59.91344      122.26185       66.31139
H         59.07034      117.86844       67.87475
H         58.88117      119.89323       65.86033
H         60.75011      119.81499       68.30569
H         58.99860      120.15286       68.39757
N         61.07593      119.64277       64.39159
C         62.25428      119.37892       63.55328
C         63.54442      119.96277       64.12085
O         64.59613      119.36843       63.93219
C         62.03018      119.87077       62.10212
C         61.98717      121.40381       61.97804
C         61.60377      121.85276       60.56421
C         61.59265      123.38586       60.47069
N         61.16800      123.83161       59.14495
H         60.26767      120.12906       63.97491
H         62.37204      118.27340       63.49188
H         61.07538      119.43229       61.73593
H         62.84818      119.49202       61.44976
H         62.98389      121.82259       62.23544
H         61.24534      121.81047       62.68761
H         60.59008      121.46233       60.32468
H         62.32896      121.44443       59.82682
H         62.61232      123.77744       60.68431
H         60.89591      123.80259       61.22887
H         60.19541      123.49888       58.95074
H         61.17694      124.87702       59.11838
H         61.82081      123.46668       58.41432
N         63.52667      121.14133       64.80272
C         64.70979      121.78768       65.38298
C         64.63409      121.84899       66.90842
O         65.59213      122.30851       67.51531
C         64.94929      123.20558       64.77557
C         63.81877      124.18619       64.97109
O         62.67301      123.73897       65.48806
O         63.90770      125.33581       64.57385
H         62.60560      121.57436       64.92573
H         65.61609      121.18777       65.14927
H         65.12823      123.10589       63.68362
H         65.86647      123.63225       65.23403
N         63.55997      121.37163       67.60458
C         63.50483      121.32322       69.05576
C         63.42757      122.66626       69.75239
O         63.41088      122.64197       70.97524
H         62.76931      120.95102       67.10388
H         64.39395      120.76712       69.42665
H         62.60607      120.75058       69.36532
N         63.38947      123.86468       69.09031
C         63.39563      125.14417       69.79961
C         62.22412      126.03988       69.42329
O         61.49442      125.74828       68.48723
C         64.74085      125.85657       69.53433
C         64.92277      126.26217       68.08744
N         65.90391      125.72198       67.32968
O         64.18031      127.09907       67.59753
H         63.40891      123.88372       68.06232
H         63.32878      124.96878       70.89520
H         65.55563      125.16487       69.84172
H         64.82796      126.76715       70.16452
H         66.54273      125.01216       67.71418
H         66.01878      126.01116       66.34679
N         62.01785      127.18269       70.13674
C         61.04238      128.21385       69.82082
C         59.62612      127.70958       69.70077
O         59.17985      126.94982       70.54921
H         62.61903      127.35702       70.95683
H         61.33924      128.73292       68.88564
H         61.06992      128.96910       70.63581
N         58.83056      128.17403       68.69066
C         57.43186      127.78420       68.53636
C         57.32266      126.35744       68.03264
O         58.34543      125.72579       67.80907
C         56.65190      128.84107       67.71729
C         57.08894      129.03831       66.28757
C         57.86505      130.15800       65.94045
C         56.68336      128.14677       65.28136
C         58.24437      130.37361       64.61433
C         57.04775      128.37652       63.94966
C         57.83512      129.48824       63.61360
O         58.20062      129.71760       62.33649
H         59.21918      128.88642       68.05512
H         56.95511      127.82069       69.54235
H         56.78352      129.80072       68.26565
H         55.55842      128.64330       67.73201
H         58.18383      130.86294       66.69867
H         56.06856      127.28863       65.52072
H         58.85131      131.23509       64.36505
H         56.72206      127.68859       63.18083
H         57.93475      129.13387       61.61208
N         56.10061      125.76431       67.91007
C         55.88568      124.33827       67.67205
C         56.41021      123.86807       66.31545
O         57.61032      123.86772       66.09369
C         56.46766      123.50790       68.86754
C         56.27074      121.98326       68.66322
C         55.81834      123.98349       70.18635
C         56.83544      121.13865       69.81103
H         55.26067      126.33352       68.09398
H         54.78566      124.16822       67.67806
H         57.56140      123.68772       68.94312
H         56.80739      121.67634       67.73948
H         55.19350      121.74334       68.53689
H         56.26992      123.48454       71.06619
H         55.97984      125.07007       70.34265
H         54.72552      123.78417       70.17532
H         56.75101      120.06144       69.55628
H         57.90328      121.38712       69.98851
H         56.27019      121.29882       70.75051
N         55.53976      123.36996       65.38839
C         55.94960      122.68521       64.16368
C         55.42287      123.34723       62.89248
O         55.55516      122.74852       61.83278
C         55.45503      121.22827       64.24851
O         54.05200      121.16589       64.26854
H         54.53007      123.40307       65.59456
H         57.05135      122.63532       64.08501
H         55.88674      120.72875       65.14791
H         55.81751      120.64687       63.37393
H         53.77257      121.17523       65.22092
N         54.82760      124.57400       62.90447
C         54.21040      125.17349       61.72237
C         55.19447      125.33277       60.55627
O         56.21417      125.97475       60.76686
C         53.63835      126.55290       62.06638
H         54.77998      125.09363       63.79346
H         53.33699      124.55745       61.47033
H         54.44441      127.24928       62.37919
H         53.12110      126.97853       61.17897
H         52.90068      126.46528       62.89167
N         54.97368      124.86699       59.28146
C         53.80708      124.11079       58.82506
C         52.84039      125.01809       58.06831
O         53.26294      126.08504       57.64371
C         54.26229      122.94893       57.93219
H         55.66560      125.12926       58.56014
H         53.28929      123.67288       59.68163
H         54.94934      122.28203       58.49408
H         53.40118      122.34626       57.57671
H         54.79749      123.33801       57.03842
N         51.50830      124.73521       57.89834
C         50.81708      123.55620       58.42389
C         49.89817      123.88921       59.58945
O         49.36488      122.96241       60.18518
C         50.06454      122.77725       57.31520
C         48.65092      123.25470       56.89351
C         48.54565      124.60510       56.24153
O         48.19525      124.68964       55.07521
O         48.70290      125.73016       56.96187
H         50.95484      125.44597       57.40804
H         51.56249      122.84937       58.82282
H         49.89203      121.75367       57.71782
H         50.72479      122.66429       56.42816
H         47.96031      123.23400       57.76404
H         48.27591      122.49657       56.17071
N         49.65543      125.17314       59.98087
C         48.77939      125.47926       61.09031
H         47.76467      125.06958       60.89793
H         49.18702      125.04053       62.02551
H         48.69888      126.57976       61.21745
H         50.08529      125.96579       59.48436
Ca        60.61249      124.37182       65.96804
O         61.79652      127.33634       65.80980
H         61.72490      127.91547       66.60882
H         62.58212      127.68447       65.31891
O         59.41814      123.53157       63.40257
H         59.21480      122.56390       63.36611
H         58.83441      123.93461       62.71247
O         59.14823      126.30450       64.39773
H         59.41507      127.15725       64.82304
H         59.28453      126.45598       63.42913

Ca 1.0



