%chk=apoCaM-CA-Ng.loop3.water7.frame1095.chk
%nprocshared=20
%mem=10GB
%nosave
#b3lyp/svp scf=(tight,noincore,xqc) Test 
#IOP(5/87=12) Density=Current Pop=(MK,readradii) iop(6/33=2) iop(6/42=6)

apoCaM-CA-Ng.loop3.water7.frame1095 

   0  1 
C         45.87719       75.65338       28.42173
C         47.33810       75.36256       28.24753
O         48.05553       76.19953       27.72459
H         45.27627       74.89470       27.87944
H         45.62177       75.61665       29.50259
H         45.62493       76.66345       28.03413
N         47.84979       74.18220       28.68812
C         49.26962       73.84127       28.62347
C         49.55520       72.60152       27.77908
O         50.72651       72.27153       27.65138
C         49.86140       73.72777       30.05174
C         49.21844       72.72339       30.97278
O         49.70635       72.56830       32.21797
O         48.25139       72.06799       30.62782
H         47.19219       73.51428       29.11303
H         49.83821       74.66305       28.13343
H         49.77899       74.72064       30.54400
H         50.94335       73.48437       29.97111
N         48.57623       71.90603       27.11409
C         48.84483       70.76242       26.23126
C         49.71006       71.12136       25.01713
O         50.10601       70.21820       24.29406
C         49.41290       69.57372       27.04543
C         48.31381       68.97546       27.94530
C         48.78912       67.76071       28.76282
C         49.74007       68.09520       29.92697
N         49.06840       68.87118       30.96995
H         47.59715       72.19830       27.21498
H         47.88993       70.40800       25.78614
H         50.30527       69.87880       27.62559
H         49.72803       68.76469       26.35070
H         47.50604       68.61684       27.26940
H         47.86451       69.74562       28.60344
H         49.28476       67.04274       28.07416
H         47.89937       67.25140       29.19215
H         50.63873       68.63806       29.56435
H         50.08121       67.13814       30.37762
H         48.77743       69.79219       30.59411
H         48.22728       68.35938       31.32371
H         49.72628       69.03582       31.76497
N         49.99650       72.41637       24.70197
C         50.80476       72.84436       23.55785
C         51.09087       74.32625       23.73681
O         50.79039       75.14341       22.87835
C         50.09475       72.49595       22.21803
C         48.66995       73.00895       22.16110
O         48.43494       74.20308       22.14226
O         47.65465       72.12047       22.18520
H         49.61712       73.15661       25.30671
H         51.79215       72.33142       23.59492
H         50.05648       71.39083       22.12727
H         50.68429       72.86313       21.34915
N         51.62424       74.72915       24.92244
C         51.71779       76.11091       25.34010
C         53.13379       76.50650       25.65752
O         54.04689       75.73553       25.39498
H         51.89368       74.01450       25.61747
H         51.09399       76.19561       26.24946
H         51.31577       76.80922       24.57616
N         53.42778       77.71345       26.21644
C         52.43173       78.69246       26.65484
C         51.63050       78.14727       27.82963
O         52.24683       77.65281       28.76371
C         53.14778       79.99353       27.08857
C         52.18797       81.04299       27.61029
N         51.97137       82.18904       26.92754
O         51.59951       80.85569       28.66553
H         54.42699       77.93602       26.35497
H         51.77602       78.96201       25.80097
H         53.68586       80.38537       26.19826
H         53.90379       79.78744       27.87813
H         52.44416       82.36962       26.03117
H         51.31011       82.89122       27.29177
N         50.27338       78.27262       27.93591
C         49.40745       78.90966       26.94118
C         48.03802       79.25721       27.50994
O         47.82256       79.07587       28.70130
H         49.85783       77.93450       28.81736
H         49.31845       78.24349       26.05690
H         49.84121       79.87944       26.62125
N         47.06251       79.80003       26.71723
C         45.78269       80.26005       27.26186
C         44.61762       79.40443       26.77985
O         44.75925       78.64214       25.83333
C         45.57288       81.74806       26.88779
C         44.40882       82.38786       27.60827
C         43.26383       82.80437       26.90743
C         44.46652       82.57728       28.99966
C         42.19153       83.38844       27.59135
C         43.39832       83.16847       29.67906
C         42.25467       83.57355       28.97698
O         41.21395       84.13875       29.62173
H         47.24172       79.91170       25.70699
H         45.80790       80.16799       28.36817
H         45.43654       81.80835       25.78471
H         46.48168       82.33738       27.13961
H         43.19404       82.66762       25.83569
H         45.34302       82.27234       29.55744
H         41.30934       83.69649       27.04424
H         43.46104       83.30990       30.75070
H         41.21891       84.28290       30.57904
N         43.43582       79.45085       27.45915
C         42.25655       78.65921       27.12227
C         41.64871       79.07067       25.79383
O         41.33982       80.24081       25.60872
C         41.16078       78.71946       28.24112
C         41.65638       77.97268       29.50445
C         40.67482       80.15103       28.58164
C         40.55784       77.75187       30.54671
H         43.40262       80.04158       28.29918
H         42.55487       77.58944       27.04883
H         40.28723       78.14714       27.85352
H         42.51099       78.50959       29.96886
H         42.00740       76.96149       29.20202
H         40.28849       80.68356       27.69364
H         39.83051       80.12281       29.29710
H         41.47810       80.76065       29.03997
H         40.96154       77.14657       31.38469
H         40.19297       78.70950       30.96732
H         39.70665       77.19972       30.09257
N         41.38841       78.13232       24.83739
C         40.63665       78.43922       23.62146
C         40.64535       77.29176       22.61665
O         41.19057       76.23044       22.88572
C         39.17377       78.79307       23.98959
O         38.56002       77.69417       24.60906
H         41.69797       77.16378       25.01137
H         41.12116       79.30384       23.11606
H         38.60309       79.07357       23.07827
H         39.14307       79.66398       24.67681
H         37.61007       77.94656       24.74814
N         40.04800       77.46385       21.40592
C         40.01427       76.48245       20.33255
C         39.31530       75.19422       20.73670
O         39.81469       74.12039       20.42877
C         41.42695       76.24646       19.77263
H         39.58922       78.36669       21.20903
H         39.40683       76.92115       19.51043
H         41.38971       75.56604       18.89557
H         41.86721       77.21183       19.44494
H         42.09266       75.79908       20.53963
N         38.12334       75.23008       21.40599
C         37.30899       74.04683       21.67685
C         38.03586       72.94799       22.44483
O         37.53621       71.82983       22.44960
C         36.75649       73.50731       20.34778
H         37.74602       76.14302       21.70058
H         36.41688       74.34238       22.27222
H         36.19051       74.30974       19.82825
H         37.56697       73.14878       19.68108
H         36.05316       72.66677       20.53322
N         39.20319       73.16944       23.12180
C         39.94323       72.08977       23.76764
C         39.04573       71.37841       24.76982
O         38.83389       70.18150       24.62785
C         41.26585       72.62008       24.39241
C         42.23792       71.49675       24.80824
C         42.63385       70.63216       23.63200
O         43.52282       71.00336       22.67685
O         42.12541       69.52717       23.53352
H         39.58791       74.12329       23.16620
H         40.22330       71.37271       22.96600
H         41.03147       73.26331       25.26955
H         41.78779       73.24095       23.64052
H         41.70869       70.86920       25.55921
H         43.15066       71.89962       25.29655
N         38.40678       72.07400       25.75075
C         37.42652       71.45196       26.61752
H         36.59339       71.03968       26.00526
H         37.88914       70.63347       27.20646
H         36.99931       72.20561       27.31289
H         38.57634       73.08582       25.85093
Ca        45.38748       72.33096       22.51686
O         46.24302       75.69539       22.75765
H         46.65910       76.05387       23.58143
H         46.71287       76.15225       22.01600
O         43.09799       73.17161       20.38518
H         42.29634       73.10508       20.96235
H         42.73838       73.25532       19.46674
O         46.06879       73.81626       19.43007
H         46.44909       74.66371       19.08730
H         45.93361       73.26065       18.62163
O         43.68870       74.93639       23.58502
H         43.73534       75.92477       23.55913
H         43.40183       74.68090       22.67245
O         46.44609       69.61641       23.04947
H         46.36993       70.11886       23.89940
H         47.41901       69.57934       22.86966
O         46.02703       73.16160       25.11044
H         45.83680       72.43913       25.75988
H         46.94654       73.46437       25.31619
O         45.01843       70.64511       19.92964
H         44.74885       70.89008       19.00934
H         44.23237       70.16859       20.29670

Ca 1.0



