%chk=apoCaM-CA-Ng.loop1.water4.frame143.chk
%nprocshared=20
%mem=10GB
%nosave
#b3lyp/svp scf=(tight,noincore,xqc) Test 
#IOP(5/87=12) Density=Current Pop=(MK,readradii) iop(6/33=2) iop(6/42=6)

apoCaM-CA-Ng.loop1.water4.frame143 

   0  1 
C         32.17273       48.55404      -24.92792
C         31.14350       49.46459      -24.32613
O         29.96821       49.12610      -24.32236
H         32.91827       48.27229      -24.15427
H         31.70156       47.62911      -25.32282
H         32.69205       49.07604      -25.75877
N         31.52871       50.65017      -23.77820
C         30.59659       51.56757      -23.12538
C         29.56534       52.19720      -24.06415
O         28.70010       52.90261      -23.56853
C         31.36526       52.65558      -22.33838
C         32.09622       53.64589      -23.20729
O         32.99414       53.28404      -23.95006
O         31.77421       54.95211      -23.14621
H         32.53764       50.86207      -23.76769
H         30.03639       50.97766      -22.37631
H         32.08684       52.17061      -21.64492
H         30.64226       53.20963      -21.71051
N         29.57198       51.98938      -25.41068
C         28.59847       52.57460      -26.32783
C         27.78583       51.47662      -26.98457
O         28.39597       50.52482      -27.45381
C         29.32531       53.36902      -27.42847
C         29.97504       54.65149      -26.89365
C         30.47350       55.56589      -28.02206
C         31.66444       54.98508      -28.79382
N         32.07475       55.89408      -29.86343
H         30.29558       51.38744      -25.82750
H         27.91934       53.27288      -25.81104
H         28.57281       53.67856      -28.18027
H         30.06864       52.72064      -27.93901
H         30.78880       54.42175      -26.17303
H         29.19479       55.22296      -26.36093
H         30.78524       56.53385      -27.57332
H         29.63177       55.77073      -28.72165
H         31.39894       54.00563      -29.24415
H         32.51193       54.83314      -28.08928
H         32.91017       55.49646      -30.34969
H         31.29847       55.99952      -30.55716
H         32.32343       56.83060      -29.46972
N         26.42810       51.52296      -27.16459
C         25.48649       52.58491      -26.79411
C         25.87529       53.96231      -27.31503
O         25.95528       54.89371      -26.52641
C         25.17425       52.60574      -25.28746
C         24.64179       51.29335      -24.82268
O         25.28873       50.66044      -23.84227
O         23.63050       50.80827      -25.30438
H         26.01191       50.73603      -27.68815
H         24.51802       52.34517      -27.28198
H         24.39829       53.37593      -25.08013
H         26.07402       52.86034      -24.69364
N         26.07509       54.22046      -28.63386
C         26.03452       53.20466      -29.67056
C         26.18974       53.86115      -31.02719
O         27.15313       54.59773      -31.18795
H         26.26276       55.20124      -28.89827
H         25.08658       52.65808      -29.56339
H         26.87255       52.49345      -29.52286
N         25.30071       53.72168      -32.05497
C         24.18426       52.77888      -32.11075
C         22.85115       53.48499      -31.93470
O         22.82026       54.69645      -31.76213
C         24.26803       51.92366      -33.39936
C         24.07429       52.68857      -34.68508
O         23.13230       52.42055      -35.41318
O         24.95681       53.62806      -35.07356
H         25.45179       54.32914      -32.87139
H         24.24362       52.04323      -31.29307
H         23.49503       51.12793      -33.34695
H         25.25302       51.40916      -33.43233
N         21.69522       52.76010      -31.92039
C         20.38540       53.33738      -31.67158
C         20.14825       53.70767      -30.21628
O         19.05682       54.17466      -29.92385
H         21.73406       51.74721      -32.10339
H         19.61459       52.57718      -31.92274
H         20.22775       54.21144      -32.34071
N         21.09314       53.51942      -29.24709
C         20.88618       53.83534      -27.83763
C         21.77273       55.00709      -27.47854
O         22.95747       54.98587      -27.78154
C         21.17667       52.60863      -26.95050
C         20.22438       51.45112      -27.27413
O         21.01277       52.97503      -25.60396
H         22.01759       53.14406      -29.49981
H         19.83046       54.12888      -27.64343
H         22.22444       52.28378      -27.12932
H         21.47369       52.28912      -25.05541
H         20.45102       50.58244      -26.62017
H         19.17048       51.75860      -27.10039
H         20.33770       51.13019      -28.33077
N         21.23172       56.08916      -26.85397
C         21.94074       57.34226      -26.62992
C         22.14798       57.56245      -25.13828
O         21.73490       58.57591      -24.59406
C         21.17636       58.49901      -27.36109
C         19.71353       58.68300      -26.84338
C         21.18682       58.23070      -28.88094
C         18.98405       59.88199      -27.44534
H         20.25206       56.02757      -26.54508
H         22.96508       57.29370      -27.06393
H         21.74141       59.43985      -27.17873
H         19.71169       58.84214      -25.74894
H         19.09934       57.78372      -27.05184
H         20.61262       57.31030      -29.12520
H         20.74897       59.07703      -29.44589
H         22.22819       58.10258      -29.24442
H         19.54833       60.81687      -27.24736
H         18.83086       59.75697      -28.53547
H         17.98039       59.96611      -26.97580
N         22.83901       56.63735      -24.41667
C         23.04368       56.72432      -22.97376
C         24.28641       55.93652      -22.59562
O         24.20359       54.89654      -21.95958
C         21.75938       56.31660      -22.19366
C         21.22627       54.92613      -22.55991
O         20.73391       57.24559      -22.43105
H         23.23227       55.82381      -24.91704
H         23.28332       57.77133      -22.67978
H         21.99088       56.31111      -21.10209
H         20.94174       58.05191      -21.88943
H         20.94493       54.88995      -23.63273
H         21.96192       54.12508      -22.35576
H         20.32043       54.71097      -21.95398
N         25.50601       56.42793      -22.95825
C         26.76857       55.73807      -22.70246
C         26.99658       55.42989      -21.22758
O         26.23580       55.88505      -20.38139
C         27.96510       56.57503      -23.26442
C         28.19157       57.88400      -22.49071
O         27.75079       56.90252      -24.61089
H         25.52322       57.32601      -23.46550
H         26.72448       54.76955      -23.24539
H         28.90890       55.99061      -23.18632
H         27.62727       56.04893      -25.09189
H         29.05325       58.43284      -22.92761
H         27.29956       58.54237      -22.54069
H         28.42697       57.68238      -21.42514
N         28.07412       54.68337      -20.85414
C         28.46355       54.44815      -19.47235
C         28.53515       52.95416      -19.11664
O         28.86636       52.65013      -17.98253
C         29.79012       55.21284      -19.26301
C         30.21566       55.38270      -17.79848
C         31.38151       56.37871      -17.70442
C         31.77256       56.65570      -16.24873
N         32.83164       57.66287      -16.17952
H         28.70135       54.33275      -21.58894
H         27.71588       54.90601      -18.78791
H         29.61415       56.24077      -19.65483
H         30.61013       54.76041      -19.86167
H         30.51042       54.40893      -17.35594
H         29.35793       55.79850      -17.22535
H         31.06924       57.34155      -18.16734
H         32.25978       55.98610      -18.26234
H         32.11975       55.71420      -15.76929
H         30.88393       57.02926      -15.69208
H         33.07633       57.83600      -15.17806
H         33.68291       57.32830      -16.68642
H         32.50081       58.56073      -16.60342
N         28.18018       51.96487      -20.00038
C         28.16835       50.54461      -19.63067
C         29.56267       50.03464      -19.31543
O         30.44376       50.10810      -20.15847
C         27.50803       49.67814      -20.73567
C         27.55243       48.16681      -20.39480
C         26.71821       47.35610      -21.34061
O         27.24063       46.59539      -22.13947
O         25.38176       47.49514      -21.32530
H         27.85773       52.22190      -20.94286
H         27.52249       50.42080      -18.73334
H         28.00888       49.83409      -21.71658
H         26.45198       50.01462      -20.83321
H         27.17337       47.97848      -19.36864
H         28.60899       47.82566      -20.45263
N         29.80986       49.43427      -18.11914
C         31.09137       48.84295      -17.80626
H         31.88549       49.61739      -17.82595
H         31.05708       48.38214      -16.79620
H         31.32783       48.04672      -18.54560
H         29.05557       49.35819      -17.42030
Ca        24.64029       48.71419      -23.00846
O         24.18611       45.48837      -23.53724
H         23.67633       44.83006      -24.07301
H         25.10563       45.44728      -23.90232
O         25.41256       47.76964      -25.90918
H         26.28697       47.80079      -25.44533
H         25.57945       47.22427      -26.71847
O         22.21837       47.14773      -21.35118
H         21.37700       47.60979      -21.10868
H         22.72904       47.10281      -20.50403
O         21.12085       49.78495      -23.36452
H         20.21537       49.50518      -23.65160
H         20.97393       50.62911      -22.86815

Ca 1.0



