%chk=apoCaM-CA-Ng.loop1.water5.frame650.chk
%nprocshared=20
%mem=10GB
%nosave
#b3lyp/svp scf=(tight,noincore,xqc) Test 
#IOP(5/87=12) Density=Current Pop=(MK,readradii) iop(6/33=2) iop(6/42=6)

apoCaM-CA-Ng.loop1.water5.frame650 

   0  1 
C        -13.96624       26.21801       31.59484
C        -15.43837       26.34046       31.33864
O        -15.88082       27.42045       30.97615
H        -13.66228       26.91619       32.40129
H        -13.68974       25.18402       31.88941
H        -13.41639       26.47685       30.66515
N        -16.26140       25.26326       31.48030
C        -17.67927       25.30601       31.15237
C        -18.45815       26.44260       31.88966
O        -18.07098       26.73946       33.20977
C        -18.30393       23.86098       31.04500
C        -18.21533       22.72894       32.07157
O        -18.59702       21.62452       31.71775
O        -17.73452       22.84414       33.32181
H        -15.85307       24.36472       31.77995
H        -17.76046       25.65373       30.09826
H        -17.77589       23.42354       30.16907
H        -19.36981       23.95641       30.74818
N        -19.90766       26.31647       31.69839
C        -20.75662       27.24973       32.45493
C        -21.79127       26.38982       33.13213
O        -22.59095       25.75814       32.45531
C        -21.37755       28.33433       31.53941
C        -22.20796       29.38683       32.30363
C        -22.86202       30.43275       31.37473
C        -21.84976       31.28700       30.58904
N        -22.53064       32.27853       29.75518
H        -20.14277       26.31427       30.67792
H        -20.16426       27.78275       33.22695
H        -22.01647       27.85079       30.76875
H        -20.53983       28.84724       31.02993
H        -21.56685       29.90573       33.04995
H        -23.02708       28.87248       32.85109
H        -23.47911       31.11243       32.00316
H        -23.54000       29.91554       30.66129
H        -21.23952       30.64037       29.92597
H        -21.17262       31.80945       31.30079
H        -21.81547       32.83220       29.22958
H        -23.15603       31.80065       29.06598
H        -23.09224       32.93039       30.34939
N        -21.79477       26.28734       34.48491
C        -22.71472       25.44156       35.23262
C        -22.65590       25.85929       36.69336
O        -22.30121       25.05482       37.54352
C        -22.42468       23.93036       34.99070
C        -21.04266       23.45446       35.36844
O        -20.12317       24.29656       35.87129
O        -20.75140       22.27882       35.21609
H        -21.11479       26.85669       35.01256
H        -23.75662       25.62786       34.89435
H        -22.57269       23.69535       33.91615
H        -23.16614       23.33405       35.56547
N        -22.97060       27.13078       37.08292
C        -23.50525       28.17328       36.21193
C        -22.63658       29.41148       36.14065
O        -23.14045       30.42476       35.67763
H        -22.87017       27.36978       38.08172
H        -24.48610       28.46700       36.64120
H        -23.70718       27.83943       35.17597
N        -21.33170       29.41646       36.54427
C        -20.50051       30.62381       36.54572
C        -19.35203       30.52736       35.55860
O        -19.13715       29.46897       34.98859
C        -19.95246       30.89287       37.96923
C        -19.03743       29.80672       38.49436
O        -19.50902       28.57341       38.75896
O        -17.86438       30.05477       38.72277
H        -20.91201       28.52945       36.84845
H        -21.10951       31.50149       36.24016
H        -20.79521       31.01802       38.68124
H        -19.38639       31.84904       37.95008
N        -18.56957       31.61837       35.29646
C        -17.36712       31.53396       34.48135
C        -17.54554       32.07631       33.08710
O        -18.59255       32.61196       32.75185
H        -18.81368       32.53137       35.71005
H        -17.07092       30.47125       34.35972
H        -16.52565       32.04211       34.99948
N        -16.54658       31.85157       32.18576
C        -16.63506       32.15391       30.76167
C        -15.39206       32.91863       30.31273
O        -14.48765       33.12944       31.10867
C        -16.74193       30.79854       29.99372
C        -17.90963       29.93335       30.48734
O        -16.86782       30.98176       28.60673
H        -15.71168       31.33837       32.50941
H        -17.54032       32.76398       30.54719
H        -15.80844       30.22062       30.17302
H        -17.71764       31.47028       28.44451
H        -17.94293       28.98432       29.91155
H        -17.79384       29.67519       31.56056
H        -18.86702       30.47371       30.34659
N        -15.26448       33.32059       29.01639
C        -14.04724       33.92003       28.48069
C        -13.79780       35.25893       29.14003
O        -12.68640       35.48918       29.59966
C        -14.09484       34.02581       26.92303
C        -14.43434       32.66800       26.23099
C        -12.75730       34.56517       26.37450
C        -13.54813       31.48356       26.63837
H        -16.05309       33.16796       28.37933
H        -13.18828       33.25083       28.70999
H        -14.88850       34.74721       26.62755
H        -14.37547       32.79937       25.12864
H        -15.48202       32.37939       26.44788
H        -12.54118       35.57591       26.77760
H        -11.91170       33.89777       26.64311
H        -12.80146       34.65093       25.26763
H        -13.66281       31.25790       27.71951
H        -13.86679       30.57809       26.08022
H        -12.48052       31.67417       26.41162
N        -14.81110       36.15860       29.29349
C        -14.64263       37.42121       30.00376
C        -15.32999       38.55811       29.26595
O        -15.92068       38.33277       28.21631
C        -15.11998       37.27444       31.47457
C        -16.63126       37.08862       31.61152
O        -14.47723       36.18079       32.07902
H        -15.75879       35.88954       28.98475
H        -13.56108       37.67867       30.05809
H        -14.86460       38.19541       32.04576
H        -13.51801       36.42073       32.17167
H        -16.97166       36.17600       31.08130
H        -16.89078       36.99276       32.68785
H        -17.16758       37.97397       31.20934
N        -15.28187       39.82109       29.76925
C        -15.86263       40.98161       29.11058
C        -14.72474       41.92235       28.76629
O        -14.47990       42.15544       27.59164
C        -16.96983       41.60845       30.00579
C        -17.57737       42.86858       29.37971
O        -16.47457       41.91371       31.28444
H        -14.77815       39.97724       30.65551
H        -16.35355       40.68535       28.15545
H        -17.77104       40.83828       30.10657
H        -17.25487       41.97167       31.89599
H        -18.00606       42.63838       28.38233
H        -18.38924       43.25729       30.03142
H        -16.80822       43.66322       29.27398
N        -13.97047       42.47628       29.75417
C        -12.81296       43.32242       29.52923
C        -11.65420       42.77458       30.33915
O        -11.82750       42.53384       31.52726
C        -13.14216       44.75482       29.97766
C        -11.95846       45.70548       29.71142
C        -12.25296       47.16717       30.06638
C        -12.52014       47.37587       31.56469
N        -12.69366       48.79503       31.86689
H        -14.22473       42.29605       30.73390
H        -12.54939       43.37255       28.44903
H        -13.41064       44.74682       31.05461
H        -14.02155       45.11218       29.39706
H        -11.70927       45.66421       28.62790
H        -11.06353       45.37541       30.28202
H        -13.11818       47.53131       29.47077
H        -11.35877       47.76372       29.78132
H        -11.66168       46.98060       32.15229
H        -13.43823       46.83078       31.87061
H        -13.50522       49.17979       31.33100
H        -12.87749       48.90582       32.89005
H        -11.82453       49.32223       31.62033
N        -10.41735       42.63058       29.78899
C         -9.27955       42.20399       30.59225
C         -9.39698       40.73263       30.97783
O         -9.43637       40.46884       32.17115
C         -7.93676       42.55497       29.91408
C         -6.74438       42.30656       30.85687
C         -5.42703       42.73653       30.26832
O         -4.30320       42.59082       30.99498
O         -5.35830       43.22254       29.14968
H        -10.27066       42.92629       28.81196
H         -9.28449       42.82245       31.52082
H         -7.95966       43.64073       29.67020
H         -7.78252       41.99738       28.97113
H         -6.68281       41.22570       31.10505
H         -6.89795       42.87849       31.79824
N         -9.45379       39.69717       30.08581
C         -9.46240       39.80419       28.64004
H         -8.57253       39.28369       28.22790
H        -10.37653       39.31471       28.24470
H         -9.46599       40.83951       28.26869
H         -9.50433       38.73861       30.46475
Ca       -17.56991       24.82670       34.17613
O        -15.29802       22.93962       35.54362
H        -14.47308       23.25241       35.09451
H        -14.97518       22.38169       36.29518
O        -18.50244       26.49867       36.45944
H        -18.82750       27.34978       36.08331
H        -19.03378       26.37722       37.28491
O        -17.93099       22.83924       37.39320
H        -17.11012       22.57703       37.88056
H        -18.61861       22.19670       37.70113
O        -15.04276       26.15816       34.78398
H        -14.11353       25.89962       35.00606
H        -15.02657       27.14703       34.74272
O        -16.11495       25.76547       37.87925
H        -15.47665       26.44976       37.55638
H        -16.70699       26.25622       38.50333

Ca 1.0



