%chk=apoCaM-CA-Ng.loop3.water5.frame341.chk
%nprocshared=20
%mem=10GB
%nosave
#b3lyp/svp scf=(tight,noincore,xqc) Test 
#IOP(5/87=12) Density=Current Pop=(MK,readradii) iop(6/33=2) iop(6/42=6)

apoCaM-CA-Ng.loop3.water5.frame341 

   0  1 
C         92.90531       70.42265       50.50027
C         93.98295       69.60571       49.85394
O         93.70273       68.86915       48.91991
H         91.92215       70.23266       50.02049
H         92.83382       70.14490       51.57440
H         93.15042       71.50186       50.42183
N         95.25188       69.66825       50.34144
C         96.36343       68.85123       49.87080
C         96.04496       67.37307       50.05007
O         96.22553       66.58480       49.13148
C         96.78432       69.21032       48.42752
C         97.19586       70.65165       48.30970
O         96.60837       71.39805       47.54325
O         98.22947       71.12193       49.03465
H         95.43684       70.29744       51.13884
H         97.23464       69.06483       50.53171
H         95.95364       68.99637       47.72196
H         97.65548       68.58591       48.13169
N         95.58337       66.93249       51.25437
C         95.38464       65.51966       51.57485
C         94.31026       64.82889       50.72991
O         94.23270       63.60920       50.79016
C         95.00104       65.34391       53.06717
C         96.03384       65.92085       54.05598
C         95.60607       65.64352       55.50633
C         96.60662       66.17039       56.55065
N         96.67643       67.63348       56.57805
H         95.42282       67.64118       51.98383
H         96.35356       65.00383       51.39318
H         94.89204       64.25721       53.27710
H         94.01751       65.83412       53.24897
H         96.12764       67.01369       53.91377
H         97.02332       65.45134       53.86973
H         95.52903       64.54224       55.63674
H         94.60497       66.08644       55.70464
H         97.61599       65.74448       56.35808
H         96.27257       65.81769       57.55154
H         95.72908       68.03527       56.76637
H         97.32054       67.92592       57.34822
H         97.05285       68.01060       55.68040
N         93.39665       65.52473       49.99462
C         92.28669       64.87955       49.29098
C         92.79222       64.07782       48.09161
O         93.49267       64.63791       47.26016
C         91.23600       65.94760       48.91406
C         89.95035       65.32849       48.44710
O         88.83586       65.38743       49.19466
O         89.89815       64.75684       47.38195
H         93.43106       66.55297       50.01485
H         91.76839       64.20547       50.01022
H         91.62611       66.66847       48.16181
H         90.99871       66.51578       49.83987
N         92.49459       62.74820       47.95548
C         93.04829       61.90290       46.89843
C         92.65401       62.27421       45.47531
O         93.27544       61.75361       44.55993
H         91.90339       62.29574       48.66830
H         92.75352       60.84318       47.06537
H         94.15454       61.95671       46.97845
N         91.63560       63.13682       45.20491
C         91.27446       63.59918       43.86517
C         91.38259       65.12374       43.72846
O         91.26843       65.60428       42.60969
C         89.86742       63.10406       43.45355
C         88.76096       63.55815       44.37823
N         87.81089       64.41534       43.94802
O         88.70901       63.13214       45.51995
H         91.09180       63.47243       45.99281
H         91.98949       63.17583       43.12581
H         89.85154       61.99363       43.41177
H         89.66822       63.46898       42.42149
H         87.83390       64.77287       42.98686
H         87.05923       64.72911       44.57902
N         91.61177       65.94530       44.79770
C         91.83712       67.38029       44.69448
C         90.79048       68.21314       45.41243
O         91.04893       69.38844       45.63190
H         91.67142       65.55567       45.74310
H         91.89970       67.73083       43.64242
H         92.82483       67.57831       45.16482
N         89.56613       67.71346       45.74552
C         88.53039       68.51120       46.40672
C         87.21827       67.75950       46.38614
O         87.17360       66.64981       46.89824
C         88.90067       68.80125       47.87977
C         87.77604       69.51833       48.59709
C         87.43258       70.83389       48.25017
C         87.03894       68.85777       49.59805
C         86.37313       71.48055       48.89534
C         85.97422       69.50206       50.23432
C         85.63811       70.81787       49.88519
O         84.60663       71.44835       50.48222
H         89.34187       66.74594       45.46558
H         88.39665       69.46811       45.85532
H         89.83816       69.38839       47.96299
H         89.08026       67.83076       48.37678
H         87.98425       71.35644       47.47942
H         87.27214       67.83620       49.87290
H         86.11655       72.49473       48.61799
H         85.40577       68.97461       50.99050
H         84.06112       71.01816       51.15629
N         86.10723       68.30093       45.80711
C         84.85134       67.56842       45.72862
C         84.72156       66.88890       44.37855
O         83.89931       65.99616       44.28044
C         83.60479       68.41964       46.15072
C         83.34879       69.63130       45.21444
C         83.74893       68.88147       47.60748
C         82.06981       70.41359       45.53079
H         86.18322       69.21759       45.34197
H         84.89396       66.71500       46.43949
H         82.71653       67.74969       46.10070
H         83.23112       69.26431       44.18925
H         84.20467       70.33674       45.23137
H         84.59291       69.59164       47.69082
H         82.82494       69.37772       47.96851
H         83.92855       68.01715       48.27759
H         81.18599       69.74073       45.51543
H         82.13528       70.92027       46.51445
H         81.92289       71.20257       44.76222
N         85.52682       67.19269       43.31058
C         85.46909       66.44372       42.05240
C         84.10383       66.50618       41.37833
O         83.86672       65.70977       40.48059
C         86.54777       66.92275       41.06284
O         87.83555       66.78649       41.60410
H         86.22150       67.94540       43.40063
H         85.66392       65.37744       42.30200
H         86.35767       67.97915       40.76267
H         86.50438       66.31085       40.13670
H         88.06863       67.64587       42.04197
N         83.14654       67.39085       41.78146
C         81.77111       67.41473       41.30727
C         81.12079       66.07109       41.60462
O         80.60969       65.41650       40.70759
C         81.71304       67.83355       39.83286
H         83.38304       68.07162       42.50301
H         81.22344       68.19216       41.88680
H         80.65716       67.92446       39.50424
H         82.20314       68.82453       39.71200
H         82.23147       67.10381       39.17880
N         81.19627       65.57565       42.87345
C         80.77996       64.23568       43.26627
C         80.01282       64.29660       44.57179
O         80.51704       64.86551       45.53050
C         82.01976       63.35789       43.44313
H         81.66738       66.15195       43.58259
H         80.17019       63.75822       42.46835
H         82.58720       63.31750       42.48791
H         82.68445       63.75144       44.23746
H         81.71606       62.32372       43.71227
N         78.78128       63.72446       44.67805
C         77.93407       63.80497       45.86425
C         77.58454       65.25739       46.13304
O         77.78479       65.74955       47.23655
C         78.55315       63.11286       47.10844
C         78.82928       61.61973       46.89690
C         79.32247       60.99190       48.17250
O         78.54549       60.99980       49.27381
O         80.42253       60.46505       48.21637
H         78.39530       63.23376       43.85752
H         76.97931       63.28144       45.63477
H         77.82726       63.21414       47.94623
H         79.49500       63.61611       47.41557
H         79.58727       61.49092       46.09370
H         77.89471       61.10213       46.59313
N         77.05998       66.01522       45.13301
C         76.70799       67.40360       45.32374
H         75.90511       67.48520       46.08634
H         77.59795       67.98029       45.65512
H         76.34077       67.83334       44.36800
H         76.91924       65.59776       44.20021
Ca        87.08158       64.23278       48.35550
O         87.09533       62.90340       50.93906
H         86.15949       63.21626       51.02314
H         87.03108       62.07112       50.40639
O         89.05594       61.72446       48.04750
H         89.76464       61.31774       47.48837
H         89.45451       61.79367       48.95064
O         84.54491       65.47847       48.76028
H         83.95805       64.80027       48.34147
H         84.38132       65.38860       49.73191
O         86.10189       61.33101       47.75582
H         85.64292       60.59787       48.23641
H         86.47232       60.90514       46.94208
O         85.20978       63.30751       45.86156
H         85.12485       63.07867       44.90217
H         84.61806       64.09011       45.98710

Ca 1.0



