%chk=apoCaM-CA-Ng.loop4.water4.frame730.chk
%nprocshared=20
%mem=10GB
%nosave
#b3lyp/svp scf=(tight,noincore,xqc) Test 
#IOP(5/87=12) Density=Current Pop=(MK,readradii) iop(6/33=2) iop(6/42=6)

apoCaM-CA-Ng.loop4.water4.frame730 

   -3  1 
C         98.88791       92.62599      -17.21414
C        100.07720       91.86142      -17.71823
O         99.90348       91.00006      -18.56578
H         98.15322       91.92791      -16.76988
H         99.17963       93.37267      -16.44591
H         98.40802       93.16279      -18.06003
N        101.33168       92.16457      -17.27688
C        102.55558       91.53635      -17.76431
C        102.61280       91.59312      -19.27055
O        102.71294       90.55635      -19.91591
C        102.77040       90.10487      -17.21703
C        102.84148       90.10676      -15.71861
O        103.58135       90.87639      -15.12659
O        102.06460       89.26890      -15.02282
H        101.44015       92.93847      -16.60425
H        103.41964       92.12988      -17.39092
H        103.74478       89.72902      -17.59852
H        101.97083       89.41137      -17.56163
N        102.58962       92.80158      -19.89866
C        102.78252       92.91794      -21.33746
C        104.28906       93.10075      -21.58611
O        104.99953       93.31848      -20.61269
C        101.84316       94.01125      -21.94467
C        102.35430       95.44593      -21.66105
C        100.39621       93.81180      -21.44861
C        101.53300       96.53436      -22.35684
H        102.57687       93.65629      -19.32181
H        102.46671       91.95954      -21.79303
H        101.82169       93.87531      -23.04120
H        103.38936       95.53521      -22.05438
H        102.37658       95.64718      -20.56971
H        100.31034       94.02444      -20.36194
H         99.68950       94.47444      -21.98963
H        100.07642       92.76537      -21.61824
H        100.49774       96.57604      -21.96277
H        102.00360       97.52321      -22.17391
H        101.50467       96.35559      -23.45331
N        104.90759       93.00341      -22.79967
C        104.26316       92.71324      -24.07199
C        103.57069       91.36123      -24.11253
O        102.75055       91.17482      -25.00081
C        105.27629       92.82205      -25.23593
C        106.44127       91.85869      -25.16437
O        106.56990       90.97457      -24.15534
O        107.29508       91.89084      -26.03510
H        105.92789       93.16069      -22.80433
H        103.50806       93.49930      -24.25011
H        105.68804       93.85467      -25.24117
H        104.74407       92.66125      -26.19818
N        103.84281       90.36626      -23.21320
C        103.14325       89.09299      -23.22862
C        103.32895       88.33382      -24.52252
O        104.09592       88.74394      -25.38419
H        104.54652       90.51207      -22.47537
H        102.05862       89.29616      -23.09067
H        103.48412       88.45448      -22.38498
N        102.58824       87.21358      -24.73628
C        102.59233       86.46743      -25.99165
C        102.02377       87.26149      -27.17979
O        101.97489       86.69242      -28.26153
C        101.88728       85.09483      -25.79755
C        100.47767       85.14396      -25.26889
O         99.57813       85.62519      -25.92934
O        100.19385       84.60230      -24.06871
H        101.98807       86.88576      -23.96377
H        103.64395       86.21227      -26.25077
H        102.48993       84.52272      -25.05944
H        101.89922       84.51847      -26.74832
N        101.61940       88.57155      -27.09466
C        101.09378       89.30964      -28.23699
C         99.69189       88.87201      -28.60684
O         99.18077       89.32167      -29.62197
H        101.68697       89.09066      -26.21369
H        101.79104       89.19164      -29.09560
H        101.03901       90.39355      -27.99490
N         98.99850       88.01729      -27.80274
C         97.66439       87.50124      -28.05881
C         96.58802       88.56794      -27.94750
O         95.45015       88.28751      -28.29679
C         97.60784       86.64835      -29.34610
C         98.72688       85.58428      -29.33789
C         98.61827       84.55120      -30.42780
N         99.57911       83.60465      -30.54294
O         97.66927       84.54831      -31.19795
H         99.43020       87.70475      -26.93063
H         97.42185       86.79044      -27.23681
H         97.70015       87.27375      -30.25917
H         96.61799       86.14081      -29.36602
H         98.71832       85.03706      -28.37147
H         99.70368       86.10055      -29.44553
H        100.38908       83.59896      -29.90433
H         99.51927       82.87921      -31.27227
N         96.84108       89.75339      -27.31388
C         95.80277       90.72027      -26.97250
C         95.59989       90.78824      -25.46108
O         94.73086       91.54085      -25.04002
C         96.12377       92.12889      -27.55324
C         97.41377       92.74334      -26.98014
C         96.19505       92.09047      -29.08369
H         97.79163       89.95000      -26.97266
H         94.82464       90.40133      -27.39468
H         95.28463       92.80823      -27.28104
H         97.34664       92.82796      -25.87711
H         98.30772       92.14158      -27.24374
H         97.55800       93.76838      -27.38313
H         97.02895       91.44198      -29.42586
H         95.24090       91.70328      -29.49974
H         96.35413       93.11540      -29.48265
N         96.34732       90.04790      -24.58204
C         96.19236       90.13845      -23.13430
C         95.79422       88.79984      -22.54016
O         95.71933       87.80728      -23.25403
C         97.49938       90.66864      -22.51783
C         97.84489       92.01932      -23.09464
N         97.03191       93.08522      -22.90065
O         98.86733       92.14928      -23.75115
H         97.07699       89.40771      -24.92639
H         95.37181       90.84280      -22.87796
H         98.31931       89.94854      -22.73671
H         97.41210       90.76583      -21.41447
H         96.16708       92.99792      -22.34749
H         97.26825       94.00430      -23.30289
N         95.42957       88.73512      -21.23003
C         94.84503       87.53843      -20.62331
C         94.07635       87.88292      -19.35281
O         94.03116       89.04730      -18.97796
C         95.89804       86.43127      -20.36074
C         96.79276       86.70122      -19.16853
C         97.77736       87.70059      -19.20040
C         96.63994       85.92994      -17.99897
C         98.59534       87.91462      -18.08399
C         97.44708       86.15887      -16.88339
C         98.42941       87.14859      -16.92221
O         99.20786       87.35224      -15.84138
H         95.45649       89.61894      -20.69943
H         94.09031       87.13501      -21.33484
H         96.50550       86.21715      -21.26492
H         95.33014       85.49862      -20.15886
H         97.92256       88.30171      -20.08854
H         95.88626       85.15462      -17.94217
H         99.36157       88.67103      -18.11794
H         97.30998       85.56357      -15.98891
H         99.89982       88.02719      -15.82656
N         93.45191       86.91391      -18.62418
C         92.74312       87.20736      -17.38970
C         93.48843       86.56240      -16.23527
O         93.37793       85.35269      -16.08621
C         91.29147       86.69409      -17.49025
C         90.45545       87.03023      -16.24701
C         89.07732       86.44566      -16.36533
O         88.91704       85.11108      -16.46071
O         88.09673       87.17198      -16.36192
H         93.50677       85.93069      -18.92988
H         92.68689       88.29521      -17.24031
H         91.30975       85.59109      -17.64139
H         90.80544       87.15162      -18.38008
H         90.39559       88.13549      -16.13718
H         90.92709       86.61022      -15.33363
N         94.31405       87.24422      -15.38590
C         94.71812       88.64682      -15.49979
C         93.57265       89.62147      -15.33422
O         92.83552       89.53283      -14.36283
C         95.80627       88.95531      -14.45375
C         96.34008       90.39275      -14.56505
C         97.56163       90.53443      -13.71737
O         97.52368       90.36769      -12.50879
O         98.73202       90.69077      -14.34642
H         94.76208       86.68464      -14.64189
H         95.19720       88.79167      -16.49480
H         96.64917       88.25188      -14.64501
H         95.42928       88.77668      -13.42311
H         95.57605       91.14588      -14.28003
H         96.63100       90.57036      -15.62327
N         93.42311       90.63137      -16.23995
C         92.39798       91.64769      -16.15846
H         91.71207       91.48660      -15.30230
H         92.88100       92.64193      -16.04548
H         91.80680       91.64394      -17.09768
H         94.09392       90.71260      -17.01885
Ca       100.69193       90.09758      -13.48034
O        102.99555       88.15895      -12.48794
H        103.89042       88.37913      -12.84981
H        103.16571       87.47422      -11.79403
O         99.93764       87.33680      -12.70030
H         99.13560       86.93758      -13.12072
H        100.63090       86.63309      -12.76441
O        102.86733       91.03611      -11.26670
H        103.23694       91.95388      -11.29658
H        103.63137       90.46922      -10.99238
O        100.36326       89.37450      -10.35085
H         99.81097       89.28771       -9.53386
H        101.12604       88.76087      -10.20178

Ca 1.0



