%chk=apoCaM-CA-Ng.loop3.water5.frame484.chk
%nprocshared=20
%mem=10GB
%nosave
#b3lyp/svp scf=(tight,noincore,xqc) Test 
#IOP(5/87=12) Density=Current Pop=(MK,readradii) iop(6/33=2) iop(6/42=6)

apoCaM-CA-Ng.loop3.water5.frame484 

   0  1 
C         41.75651       39.37455       83.84083
C         40.44512       38.75927       83.44739
O         39.51011       38.81620       84.23068
H         42.52319       39.23788       83.04848
H         41.62631       40.45950       84.02895
H         42.12641       38.88361       84.76629
N         40.31642       38.12654       82.24691
C         39.12570       37.40716       81.80324
C         38.84694       36.23891       82.73966
O         37.71848       36.04577       83.17174
C         37.90906       38.35022       81.62078
C         38.13507       39.46041       80.62575
O         37.14658       40.34437       80.39229
O         39.19194       39.57294       80.02417
H         41.13098       38.10626       81.61393
H         39.35687       36.95869       80.81096
H         37.63925       38.80943       82.59136
H         37.03763       37.75726       81.26884
N         39.87798       35.42218       83.10490
C         39.74849       34.24731       83.96825
C         39.08755       34.54491       85.31437
O         38.61994       33.60549       85.94407
C         41.16346       33.63216       84.16762
C         41.28402       32.46548       85.15976
C         40.47379       31.22692       84.75861
C         40.47932       30.15232       85.86044
N         41.81696       29.62655       86.13896
H         40.81391       35.65057       82.73418
H         39.08653       33.52768       83.43905
H         41.82615       34.43592       84.56130
H         41.56496       33.32029       83.17815
H         40.97164       32.81555       86.16571
H         42.35931       32.19562       85.22627
H         40.86469       30.81210       83.80425
H         39.41427       31.51385       84.60149
H         39.82384       29.31575       85.53408
H         40.04652       30.57963       86.79311
H         42.23033       29.21562       85.27118
H         42.44215       30.37254       86.51784
H         41.73804       28.87810       86.86476
N         39.00831       35.80137       85.83215
C         38.36010       36.08063       87.11238
C         36.86570       35.73953       87.06656
O         36.30791       35.57610       85.98982
C         38.65281       37.55323       87.50061
C         37.95350       38.03367       88.73224
O         38.61997       38.37080       89.84641
O         36.75081       38.18984       88.70837
H         39.45587       36.57324       85.32206
H         38.82778       35.42498       87.88107
H         38.35431       38.23292       86.67340
H         39.75120       37.64977       87.64376
N         36.17347       35.55572       88.23122
C         34.76193       35.20591       88.29744
C         33.89526       36.30043       87.72552
O         33.19338       36.04294       86.75768
H         36.68248       35.63452       89.12303
H         34.46769       35.04670       89.35686
H         34.59672       34.24978       87.75291
N         33.92081       37.56072       88.25579
C         33.18741       38.68344       87.67537
C         34.13301       39.62546       86.93308
O         34.02107       40.83762       87.06143
C         32.31802       39.40407       88.74075
C         33.08999       40.10268       89.84800
N         32.42586       40.82692       90.77801
O         34.30847       40.03791       89.90350
H         34.52099       37.73007       89.07017
H         32.49906       38.29899       86.89298
H         31.62055       38.67158       89.20131
H         31.70954       40.17511       88.22102
H         31.39983       40.90988       90.74714
H         32.93954       41.32105       91.52287
N         35.07217       39.11130       86.08660
C         35.93686       39.89844       85.21890
C         36.93660       40.83483       85.88501
O         37.68421       41.45807       85.14993
H         35.14263       38.08706       85.99852
H         35.30140       40.49340       84.52886
H         36.53012       39.18751       84.60606
N         37.00674       41.01708       87.23656
C         37.95805       41.94216       87.86606
C         37.55744       42.21645       89.31768
O         36.73596       41.51282       89.87810
C         39.39142       41.36052       87.74055
C         40.49823       42.11421       88.44504
C         40.85554       43.42208       88.07331
C         41.20755       41.48189       89.48265
C         41.89772       44.08424       88.73748
C         42.24682       42.14185       90.14017
C         42.59634       43.44692       89.77076
O         43.59476       44.09594       90.40354
H         36.34438       40.51200       87.82727
H         37.87453       42.92248       87.34668
H         39.67056       41.26762       86.67033
H         39.35386       40.33321       88.15144
H         40.32790       43.92863       87.27533
H         40.95844       40.47240       89.78552
H         42.16313       45.09409       88.45121
H         42.77807       41.63633       90.93700
H         44.09355       43.68958       91.12739
N         38.04895       43.31779       89.95568
C         37.60610       43.72923       91.28588
C         36.10621       43.96545       91.26530
O         35.43109       43.40973       92.12002
C         38.43294       44.95465       91.79068
C         39.90102       44.48880       92.00948
C         37.86086       45.51713       93.10832
C         40.88516       45.59074       92.39612
H         38.70674       43.92283       89.45091
H         37.79842       42.91179       92.01293
H         38.39129       45.76153       91.02522
H         40.28309       44.03476       91.07877
H         39.92665       43.70463       92.79827
H         37.87823       44.74724       93.90781
H         38.43028       46.40629       93.44510
H         36.81890       45.85908       92.97331
H         40.92388       46.36670       91.60423
H         40.62308       46.05350       93.36784
H         41.89694       45.14415       92.50597
N         35.49152       44.69211       90.28744
C         34.03777       44.82595       90.26229
C         33.53716       45.69167       91.40528
O         32.39924       45.50906       91.81241
C         33.51767       45.34719       88.91598
O         33.99774       46.63779       88.66409
H         36.05767       45.08873       89.52092
H         33.60424       43.80400       90.37091
H         32.40298       45.35645       88.94217
H         33.85245       44.65522       88.11019
H         33.57933       46.91832       87.80854
N         34.33038       46.65897       91.96551
C         33.91567       47.52740       93.06629
C         33.61457       46.75422       94.35016
O         33.04038       47.33220       95.26274
C         32.72560       48.39750       92.63252
H         35.27432       46.81115       91.58298
H         34.74337       48.23520       93.29594
H         32.48438       49.13576       93.42645
H         32.98967       48.96008       91.71136
H         31.81667       47.79540       92.43603
N         34.01581       45.46023       94.51156
C         33.69517       44.63535       95.66818
C         34.95164       44.30564       96.44534
O         35.93377       43.88946       95.84724
C         33.02172       43.35047       95.18754
H         34.58489       45.01966       93.77906
H         32.97566       45.14862       96.34294
H         33.69827       42.78439       94.51429
H         32.75865       42.70918       96.05590
H         32.09156       43.59637       94.63264
N         34.97184       44.45981       97.80291
C         36.13292       44.22881       98.65668
C         37.19537       45.26318       98.34312
O         38.31655       44.91474       97.99777
C         36.66397       42.76930       98.56610
C         35.61952       41.68540       98.89027
C         35.15912       41.65650      100.32559
O         35.65555       42.50697      101.24494
O         34.34079       40.81961      100.67110
H         34.10917       44.77390       98.27336
H         35.82835       44.41672       99.70756
H         37.53257       42.64380       99.24999
H         37.03624       42.57578       97.53990
H         36.07832       40.69528       98.67672
H         34.74271       41.80667       98.21916
N         36.88383       46.58515       98.45654
C         37.81655       47.65858       98.18476
H         38.81491       47.28470       97.87640
H         37.41185       48.29631       97.37133
H         37.93849       48.27690       99.09872
H         35.93192       46.85117       98.75236
Ca        37.24383       39.08628       91.48740
O         38.65422       37.68150       93.48412
H         38.73736       36.72625       93.72690
H         38.89671       38.17616       94.30641
O         38.74431       40.77181       93.18430
H         39.57375       41.21204       92.87253
H         38.42380       41.33038       93.93571
O         35.47352       38.10341       94.13598
H         35.74751       38.67497       94.89621
H         34.50089       38.26388       94.03926
O         35.16162       36.55216       91.56203
H         35.07793       36.04875       92.40999
H         36.08549       36.36778       91.25989
O         35.20177       40.76926       92.93890
H         34.39971       40.72230       93.51638
H         35.88443       41.21581       93.49951

Ca 1.0



