%chk=apoCaM-CA-Ng.loop1.water4.frame368.chk
%nprocshared=20
%mem=10GB
%nosave
#b3lyp/svp scf=(tight,noincore,xqc) Test 
#IOP(5/87=12) Density=Current Pop=(MK,readradii) iop(6/33=2) iop(6/42=6)

apoCaM-CA-Ng.loop1.water4.frame368 

   0  1 
C         27.92614       92.18407       30.22519
C         27.81381       91.47774       28.90159
O         27.88188       92.13042       27.87008
H         28.90477       92.70207       30.29467
H         27.10842       92.92818       30.32199
H         27.84746       91.47275       31.07605
N         27.64401       90.12791       28.85974
C         27.54253       89.34974       27.62477
C         26.25397       89.59012       26.82356
O         26.05703       88.87353       25.85190
C         27.66843       87.83362       27.94626
C         26.49780       87.25535       28.70663
O         26.19173       87.68864       29.94408
O         25.83165       86.36346       28.20572
H         27.65047       89.62673       29.75990
H         28.41945       89.59391       26.98482
H         28.60192       87.65195       28.52189
H         27.76829       87.28112       26.98521
N         25.32122       90.53134       27.16479
C         23.98858       90.59848       26.56427
C         23.79916       91.86962       25.74242
O         24.13888       92.92498       26.25913
C         22.93435       90.54164       27.69014
C         23.14207       89.31251       28.58892
C         22.02672       89.17780       29.62955
C         22.32627       88.09135       30.67822
N         22.52327       86.76639       30.08753
H         25.50268       91.18245       27.93869
H         23.81235       89.71208       25.94747
H         21.92190       90.50813       27.23496
H         22.99669       91.45559       28.32134
H         24.11442       89.41943       29.11652
H         23.16919       88.39714       27.95998
H         21.06820       88.95832       29.11002
H         21.91516       90.13944       30.17640
H         21.47168       88.05168       31.38885
H         23.23588       88.37483       31.25325
H         22.64939       86.07039       30.85730
H         21.69320       86.49532       29.51305
H         23.38746       86.75056       29.50102
N         23.22149       91.91593       24.49255
C         22.64847       90.80357       23.72511
C         21.51368       90.13976       24.49231
O         21.70598       89.05970       25.03097
C         23.72231       89.83728       23.16141
C         24.58959       90.51330       22.14143
O         24.35842       91.79227       21.79080
O         25.51921       89.90489       21.63746
H         23.12834       92.84980       24.06148
H         22.18306       91.20993       22.80550
H         23.25112       88.98286       22.64766
H         24.36986       89.42909       23.95195
N         20.26521       90.69274       24.56292
C         19.86529       91.86232       23.78617
C         18.38940       92.21050       23.92450
O         17.71735       91.64837       24.77769
H         19.55987       90.19264       25.12462
H         20.01840       91.59689       22.71864
H         20.48463       92.74753       24.04842
N         17.76309       93.08169       23.07574
C         18.41303       93.76038       21.95517
C         18.02283       93.09395       20.64676
O         17.18355       92.20335       20.64229
C         18.11492       95.27949       21.95345
C         16.66769       95.63030       21.70169
O         16.36219       96.27791       20.71274
O         15.70714       95.27230       22.57425
H         16.74412       93.18721       23.18132
H         19.51285       93.65743       22.03675
H         18.72891       95.75476       21.15700
H         18.43224       95.72368       22.92095
N         18.64579       93.45076       19.49032
C         18.38262       92.81023       18.21434
C         18.73334       91.33949       18.24972
O         17.89136       90.51401       17.92663
H         19.35962       94.19433       19.51338
H         19.01931       93.29128       17.43928
H         17.31969       92.95870       17.92410
N         19.98168       90.94953       18.62605
C         20.45868       89.56978       18.60911
C         20.82357       89.12549       20.00979
O         21.48353       89.87770       20.71247
C         21.70177       89.47988       17.69683
C         21.35928       89.82345       16.24697
O         22.22438       88.17788       17.72507
H         20.65081       91.68024       18.91841
H         19.69098       88.87113       18.20738
H         22.47655       90.20874       18.03965
H         22.90603       88.16021       18.44771
H         22.27122       89.73981       15.61896
H         20.59308       89.11935       15.85656
H         20.97272       90.86082       16.16731
N         20.50044       87.86978       20.44727
C         20.86993       87.37116       21.76989
C         21.97849       86.32522       21.71246
O         22.40047       85.89759       22.77884
C         19.63858       86.81927       22.54905
C         19.08018       85.51228       21.92187
C         18.56018       87.90720       22.67879
C         18.00153       84.84338       22.77602
H         20.01645       87.23007       19.79963
H         21.26762       88.20452       22.37458
H         19.99139       86.57266       23.57682
H         19.90222       84.77006       21.83100
H         18.67566       85.70378       20.90648
H         18.14418       88.17081       21.68388
H         17.73408       87.57639       23.33901
H         18.99448       88.81891       23.13302
H         18.39768       84.62229       23.79061
H         17.09876       85.47943       22.86184
H         17.69880       83.88597       22.30210
N         22.48762       85.83578       20.53742
C         23.48238       84.76269       20.53395
C         24.77518       85.17278       21.22948
O         24.99293       86.34858       21.49227
C         23.73734       84.18090       19.11608
C         24.38049       85.17342       18.14464
O         22.52705       83.73266       18.56152
H         22.11452       86.17284       19.64110
H         23.04332       83.93440       21.13484
H         24.44336       83.32072       19.19468
H         22.30904       82.86897       19.00180
H         24.55002       84.67677       17.16500
H         23.72139       86.04268       17.97047
H         25.35922       85.52749       18.52958
N         25.63232       84.20341       21.64968
C         26.79661       84.46595       22.48858
C         27.88736       85.22946       21.76374
O         28.23278       84.86324       20.64890
C         27.35948       83.15068       23.10103
C         27.95173       82.16362       22.08591
O         26.34481       82.49357       23.81701
H         25.37507       83.22464       21.45344
H         26.46403       85.06104       23.36872
H         28.18748       83.40860       23.80199
H         26.19619       83.01201       24.65100
H         28.32303       81.26530       22.62369
H         27.19487       81.83691       21.34473
H         28.81592       82.60578       21.55288
N         28.55656       86.23221       22.40744
C         29.76223       86.85718       21.87631
C         29.61510       88.36760       21.78970
O         29.78232       88.91615       20.70965
C         30.97449       86.52567       22.78921
C         31.20808       85.02414       23.05710
C         31.50004       84.15468       21.82510
C         32.79403       84.54096       21.09745
N         33.04866       83.62728       19.98339
H         28.25914       86.49429       23.35940
H         29.99418       86.46729       20.86051
H         30.82088       86.98866       23.78719
H         31.89427       86.97844       22.36043
H         30.31175       84.61371       23.56762
H         32.06031       84.92481       23.76531
H         30.65052       84.19542       21.11709
H         31.59769       83.10384       22.17711
H         33.64846       84.49519       21.80915
H         32.71466       85.57714       20.70460
H         33.15716       82.64898       20.33792
H         32.25916       83.66661       19.29845
H         33.93150       83.91059       19.50038
N         29.38702       89.10687       22.91580
C         29.47069       90.56156       22.96875
C         30.64794       90.91709       23.84779
O         30.65538       90.56772       25.02106
C         28.15569       91.18216       23.49424
C         28.26592       92.67940       23.87564
C         28.87209       93.55411       22.79956
O         29.93938       94.10876       23.00500
O         28.24838       93.74869       21.62231
H         29.23891       88.61501       23.81022
H         29.65160       90.98579       21.95678
H         27.81803       90.64039       24.40511
H         27.38601       91.04279       22.71562
H         28.90508       92.74725       24.78282
H         27.26166       93.06224       24.16100
N         31.69038       91.62161       23.33047
C         32.83677       91.99530       24.12407
H         33.55577       92.56486       23.49781
H         32.51521       92.63629       24.97188
H         33.34053       91.08451       24.51049
H         31.67220       91.90808       22.33962
Ca        26.12358       93.10264       21.52773
O         26.12961       96.54264       20.96212
H         25.85472       97.49218       21.02346
H         27.05543       96.52928       21.31319
O         27.42208       91.57396       19.12721
H         26.45247       91.51287       18.93293
H         27.52080       91.17389       20.02779
O         26.85973       94.60138       18.27499
H         26.66784       94.57325       17.30348
H         27.54850       95.30510       18.37215
O         23.78981       93.37497       18.36312
H         23.58037       94.16623       17.80548
H         24.14285       92.70721       17.72292

Ca 1.0



