%chk=apoCaM-CA-Ng.loop4.water3.frame124.chk
%nprocshared=20
%mem=10GB
%nosave
#b3lyp/svp scf=(tight,noincore,xqc) Test 
#IOP(5/87=12) Density=Current Pop=(MK,readradii) iop(6/33=2) iop(6/42=6)

apoCaM-CA-Ng.loop4.water3.frame124 

   -3  1 
C         39.61404       65.21341        6.34744
C         39.62898       66.55437        7.01398
O         40.59702       66.85378        7.68376
H         40.55004       64.65596        6.57566
H         38.74560       64.62236        6.69879
H         39.55506       65.35237        5.24716
N         38.60133       67.43182        6.83654
C         38.58549       68.80741        7.33260
C         39.71433       69.61438        6.72217
O         40.53883       70.15857        7.43094
C         38.35563       68.94056        8.86511
C         39.17980       68.21504        9.91535
O         40.48197       68.46793       10.17539
O         38.58893       67.46900       10.68076
H         37.81156       67.13415        6.24361
H         37.67587       69.29919        6.91573
H         37.30924       68.58999        9.01962
H         38.35657       70.02331        9.11800
N         39.73970       69.74243        5.36166
C         40.69385       70.46287        4.51632
C         40.67205       71.97542        4.72206
O         40.20799       72.66904        3.82684
C         42.12570       69.87791        4.57773
C         43.05471       70.51327        3.50826
C         42.12766       68.34544        4.43908
C         42.60823       70.35825        2.04748
H         38.98754       69.25860        4.84521
H         40.32557       70.28395        3.48274
H         42.55675       70.10057        5.57572
H         44.03541       70.02388        3.60185
H         43.18293       71.59789        3.71332
H         41.67287       68.01915        3.48287
H         43.16852       67.96124        4.49456
H         41.56374       67.88088        5.27207
H         42.49461       69.29102        1.77068
H         41.65876       70.89522        1.85096
H         43.37610       70.80424        1.38121
N         41.16854       72.56851        5.84668
C         41.11559       74.00631        6.06217
C         42.20826       74.74220        5.28258
O         41.83015       75.58981        4.48588
C         41.07459       74.35460        7.57091
C         39.85842       73.80168        8.28001
O         39.02543       73.12869        7.69134
O         39.68459       74.06343        9.58910
H         41.57601       71.99541        6.59188
H         40.13368       74.38354        5.68883
H         41.04350       75.46042        7.67826
H         41.96042       73.97703        8.10521
N         43.56017       74.54251        5.40794
C         44.20336       73.55006        6.26398
C         45.74329       73.63014        6.24286
O         46.27435       74.41964        5.47536
H         44.15757       75.15400        4.83182
H         43.88432       72.54563        5.92811
H         43.86524       73.71130        7.28298
N         46.57118       72.85246        7.02220
C         46.17600       71.87306        8.03108
C         45.14119       70.91926        7.48969
O         44.01000       70.94038        7.95323
C         45.89216       72.49380        9.43039
C         44.94250       73.64997        9.51989
O         43.81433       73.54773       10.24628
O         45.23274       74.72064        9.00970
H         47.58736       72.94642        6.86706
H         47.05471       71.23958        8.27768
H         46.85358       72.86526        9.84716
H         45.54576       71.67665       10.10082
N         45.43259       70.02675        6.50092
C         46.75843       69.73949        5.97900
C         47.08414       70.52771        4.74711
O         46.23562       70.64208        3.87990
H         44.68045       69.41207        6.16983
H         46.72691       68.68777        5.62135
H         47.55144       69.72848        6.75405
N         48.34249       70.99696        4.52510
C         48.70817       71.58248        3.23689
C         48.60839       70.56809        2.08527
O         48.75628       70.98251        0.94473
C         50.09743       72.25377        3.29829
C         51.27757       71.28742        3.49050
C         52.55725       72.06579        3.68318
N         53.58717       71.95599        2.81229
O         52.66455       72.80798        4.64850
H         49.04762       70.90381        5.27120
H         47.98356       72.40358        3.03541
H         50.07185       72.98354        4.13721
H         50.26733       72.82565        2.35854
H         51.34686       70.62503        2.60284
H         51.13041       70.64956        4.38566
H         53.52523       71.34537        1.98706
H         54.45432       72.49348        2.96209
N         48.34088       69.23913        2.30266
C         48.16430       68.25356        1.23822
C         49.20046       67.14019        1.30291
O         49.18183       66.31653        0.39614
C         46.71656       67.66658        1.24533
C         45.69103       68.73229        0.83921
C         46.31510       67.03848        2.59279
H         48.24797       68.88944        3.26289
H         48.31814       68.73073        0.24539
H         46.66034       66.86926        0.47037
H         44.67385       68.28722        0.79252
H         45.68134       69.57439        1.55887
H         45.93399       69.12778       -0.17022
H         47.03266       66.24614        2.89089
H         46.26564       67.80397        3.39294
H         45.30609       66.57893        2.51405
N         50.14979       67.04790        2.28648
C         51.20942       66.04236        2.24697
C         51.18682       65.07751        3.42363
O         51.95173       64.12506        3.37444
C         52.58323       66.74427        2.20972
C         52.68618       67.77838        1.11681
N         52.54437       67.44471       -0.18530
O         52.90514       68.94053        1.41734
H         50.17035       67.73508        3.05364
H         51.10833       65.41881        1.33230
H         53.39142       65.99297        2.07648
H         52.74511       67.25365        3.18607
H         52.36216       66.47158       -0.46593
H         52.61564       68.16919       -0.91573
N         50.39767       65.25986        4.52809
C         50.52301       64.39902        5.70833
C         49.22149       64.31603        6.49929
O         48.37762       65.18251        6.35254
C         51.55024       65.02333        6.68240
C         52.91983       65.28948        6.11547
C         53.77557       64.23249        5.76986
C         53.36677       66.61404        5.96564
C         55.06137       64.49886        5.28598
C         54.64653       66.87752        5.47572
C         55.50115       65.81983        5.13806
O         56.74485       66.06126        4.67744
H         49.81793       66.10660        4.59376
H         50.82985       63.37521        5.39882
H         51.68541       64.37031        7.56810
H         51.11968       65.98977        7.03206
H         53.45276       63.20594        5.89003
H         52.72471       67.44657        6.22685
H         55.71949       63.67769        5.03272
H         54.97291       67.90413        5.36545
H         57.08718       66.96070        4.57188
N         49.07896       63.36130        7.47041
C         48.05998       63.34949        8.52812
C         46.59785       63.27437        8.09337
O         45.76109       63.25918        8.98711
C         48.22404       64.59313        9.43884
C         49.61506       64.69767       10.07303
C         49.69875       65.90428       10.96204
O         48.88719       66.01378       12.03133
O         50.50354       66.79028       10.72213
H         49.81211       62.63897        7.53957
H         48.24566       62.45120        9.16011
H         47.48362       64.53438       10.26705
H         48.01334       65.51685        8.85724
H         50.37832       64.78425        9.28098
H         49.83071       63.78834       10.67351
N         46.18499       63.25602        6.79505
C         44.77325       63.37308        6.42509
C         44.26687       62.14057        5.69326
O         43.10475       62.14071        5.30990
C         44.59017       64.65060        5.56932
C         45.08119       65.94067        6.26434
C         44.23096       66.40750        7.41148
O         43.76654       67.66964        7.39276
O         44.01903       65.69538        8.37824
H         46.87641       63.21643        6.03397
H         44.12506       63.46877        7.32049
H         43.52656       64.78226        5.27061
H         45.19204       64.51948        4.64362
H         45.09811       66.75440        5.50914
H         46.11257       65.81136        6.62557
N         45.05115       61.03984        5.49494
C         44.58331       59.83910        4.83126
H         43.53082       59.92257        4.48776
H         45.22448       59.63385        3.94937
H         44.65243       58.98204        5.53392
H         46.02150       61.02297        5.83779
Ca        42.22788       68.54224        8.76750
O         41.57492       71.24371       10.54667
H         41.09868       71.68446        9.80013
H         42.52966       71.29992       10.29457
O         44.31092       69.30661       11.05337
H         44.42343       70.01982       11.73089
H         44.49661       68.46789       11.54463
O         42.43313       66.41197       11.06218
H         42.26199       65.74537       10.35059
H         43.35147       66.21423       11.37413

Ca 1.0



