%chk=apoCaM-CA-Ng.loop4.water3.frame121.chk
%nprocshared=20
%mem=10GB
%nosave
#b3lyp/svp scf=(tight,noincore,xqc) Test 
#IOP(5/87=12) Density=Current Pop=(MK,readradii) iop(6/33=2) iop(6/42=6)

apoCaM-CA-Ng.loop4.water3.frame121 

   -3  1 
C         28.93454       75.89893        5.63008
C         28.51261       77.26146        6.08488
O         29.03684       77.73562        7.08088
H         29.70646       75.48116        6.31305
H         28.05795       75.21930        5.62269
H         29.36361       75.96547        4.60887
N         27.58177       77.96737        5.37777
C         27.14219       79.31211        5.73437
C         28.31582       80.26878        5.78034
O         28.58599       80.85376        6.80929
C         26.14516       79.32549        6.93249
C         26.36027       78.39380        8.10967
O         27.34206       78.52948        9.02337
O         25.56060       77.48523        8.27473
H         27.20002       77.55010        4.51543
H         26.52436       79.71646        4.89941
H         25.18296       78.98231        6.48683
H         25.95991       80.36644        7.27057
N         29.02133       80.48368        4.62947
C         30.14829       81.39345        4.40837
C         29.74755       82.86189        4.53928
O         29.70369       83.53140        3.51551
C         31.41389       81.00958        5.22120
C         32.62885       81.91776        4.88066
C         31.77580       79.52830        4.99861
C         33.05238       81.93042        3.40366
H         28.72069       79.94814        3.79940
H         30.41535       81.24895        3.33762
H         31.20428       81.13503        6.30529
H         33.49422       81.57671        5.48472
H         32.40371       82.96416        5.17869
H         32.68166       79.26051        5.58180
H         30.95150       78.86970        5.33971
H         31.96397       79.31126        3.92697
H         33.32226       80.91549        3.04991
H         32.25450       82.34226        2.75402
H         33.93987       82.58526        3.28005
N         29.43872       83.44271        5.73559
C         28.96077       84.81500        5.83207
C         30.11791       85.81539        5.74818
O         30.11339       86.58269        4.79589
C         28.01071       84.99913        7.04416
C         26.76720       84.14336        6.97257
O         26.57468       83.36984        6.04675
O         25.84889       84.23699        7.95259
H         29.49676       82.89916        6.60138
H         28.29769       85.01634        4.95774
H         27.68453       86.06061        7.08164
H         28.49667       84.74180        7.99692
N         31.15192       85.91107        6.64197
C         31.29262       85.08978        7.83413
C         32.50474       85.43560        8.69104
O         33.28778       86.28628        8.29329
H         31.86312       86.63217        6.44772
H         31.35790       84.02866        7.52753
H         30.42402       85.28128        8.45517
N         32.77188       84.82873        9.89285
C         31.97995       83.79705       10.56850
C         31.80275       82.59245        9.65073
O         30.67649       82.27205        9.30389
C         30.67658       84.39188       11.15976
C         29.97757       83.42793       12.07786
O         28.81933       83.10860       11.86784
O         30.61447       82.94159       13.16047
H         33.64044       85.11307       10.37362
H         32.54693       83.46480       11.46628
H         29.96528       84.71665       10.38498
H         30.94545       85.28247       11.76798
N         32.86951       81.89822        9.15003
C         34.24923       82.13395        9.54254
C         35.05972       82.75937        8.44086
O         34.58932       82.91050        7.32305
H         32.69630       81.15843        8.45431
H         34.71428       81.18209        9.87711
H         34.31442       82.82024       10.40228
N         36.30305       83.22105        8.73963
C         37.15587       83.92048        7.78404
C         37.72791       83.00658        6.70593
O         38.40636       83.51351        5.82283
C         38.30232       84.64044        8.53604
C         39.29338       83.68356        9.23146
C         40.32062       84.45431       10.01644
N         41.63768       84.35332        9.72463
O         39.95923       85.17107       10.93824
H         36.60549       83.14066        9.72137
H         36.54306       84.71428        7.30031
H         37.84036       85.31236        9.29353
H         38.86696       85.27887        7.82112
H         39.78959       83.05515        8.46408
H         38.77531       83.00637        9.93976
H         41.96600       83.75242        8.95554
H         42.33422       84.87887       10.27311
N         37.54597       81.65462        6.73792
C         38.17817       80.72698        5.80528
C         39.14527       79.79707        6.53186
O         39.74211       78.96113        5.86807
C         37.11628       79.93923        4.99085
C         36.34695       80.88684        4.06405
C         36.13775       79.15234        5.87531
H         36.97910       81.24086        7.48962
H         38.80513       81.27466        5.06647
H         37.64874       79.21323        4.33664
H         35.79397       81.64899        4.65057
H         37.04998       81.40886        3.37975
H         35.63157       80.31103        3.44077
H         36.68603       78.44932        6.53628
H         35.52802       79.83896        6.49694
H         35.44231       78.56207        5.24134
N         39.41016       79.92576        7.86926
C         40.42910       79.14292        8.55845
C         39.88826       78.37782        9.75762
O         40.51247       77.38729       10.11488
C         41.55530       80.07897        9.05168
C         42.24960       80.80305        7.92006
N         43.57175       80.62359        7.69278
O         41.61787       81.56942        7.20834
H         38.94514       80.66342        8.41171
H         40.89531       78.40094        7.87239
H         42.30398       79.47350        9.60879
H         41.13946       80.83255        9.75654
H         44.13061       79.98780        8.27989
H         44.04119       81.12451        6.92368
N         38.85246       78.84300       10.52097
C         38.51916       78.27441       11.82367
C         37.07046       77.83561       11.91190
O         36.19050       78.62581       11.59917
C         38.74804       79.33868       12.91878
C         40.10921       79.98916       12.85668
C         41.28859       79.23297       12.96596
C         40.20075       81.38233       12.69403
C         42.53659       79.86380       12.90741
C         41.44576       82.00922       12.64302
C         42.61939       81.25203       12.74815
O         43.82758       81.84784       12.70041
H         38.34360       79.69193       10.23938
H         39.18064       77.41469       12.06743
H         38.62212       78.86584       13.91646
H         37.96932       80.12770       12.82215
H         41.24486       78.15887       13.09350
H         39.30690       81.98840       12.61148
H         43.44056       79.27367       12.98897
H         41.49506       83.08374       12.52329
H         43.92272       82.80587       12.59787
N         36.75524       76.62767       12.46851
C         35.40422       76.22537       12.86410
C         34.45158       75.97488       11.70431
O         33.29848       75.66912       11.97802
C         34.79992       77.23389       13.87571
C         35.70261       77.43254       15.10442
C         35.09746       78.41144       16.06778
O         34.88098       79.56214       15.72131
O         34.80742       78.02938       17.32588
H         37.52425       75.99709       12.74312
H         35.48219       75.25241       13.40060
H         33.81590       76.85164       14.22703
H         34.61886       78.21263       13.38619
H         36.69340       77.82252       14.79636
H         35.85415       76.45587       15.61332
N         34.85648       75.99387       10.40099
C         33.96733       75.64583        9.29613
C         34.31537       74.27914        8.72433
O         33.61997       73.84057        7.81725
C         34.04644       76.71506        8.18604
C         33.65713       78.13862        8.61240
C         32.20868       78.26396        8.98967
O         31.46111       78.94027        8.30373
O         31.72936       77.66250       10.09308
H         35.84386       76.18160       10.17555
H         32.91713       75.55507        9.64318
H         33.39094       76.42087        7.33577
H         35.09285       76.74515        7.81082
H         33.84023       78.79650        7.73771
H         34.29845       78.49822        9.44398
N         35.34799       73.52801        9.20617
C         35.64875       72.21658        8.67716
H         36.52661       71.78827        9.20593
H         34.77966       71.54105        8.82734
H         35.88311       72.28847        7.59423
H         35.94319       73.87389        9.97155
Ca        29.01418       79.99955        9.29650
O         26.97744       82.01691        9.91997
H         26.38797       81.76984        9.16550
H         27.77757       82.40931        9.48787
O         28.85018       76.74179       10.81946
H         28.20725       76.24964       10.24969
H         29.62927       76.13584       10.89247
O         29.49287       79.87558       12.24388
H         29.02315       79.05433       12.53450
H         29.22070       80.56043       12.90408

Ca 1.0



