%chk=apoCaM-CA-Ng.loop2.water6.frame207.chk
%nprocshared=20
%mem=10GB
%nosave
#b3lyp/svp scf=(tight,noincore,xqc) Test 
#IOP(5/87=12) Density=Current Pop=(MK,readradii) iop(6/33=2) iop(6/42=6)

apoCaM-CA-Ng.loop2.water6.frame207 

   -2  1 
C         29.86055       17.30334       75.65720
C         29.57786       15.84641       75.87583
O         28.67382       15.31390       75.24768
H         30.89771       17.42428       75.27862
H         29.15871       17.73452       74.91119
H         29.75388       17.85724       76.61299
N         30.33250       15.13425       76.75960
C         30.16356       13.70334       77.00323
C         29.74595       13.48291       78.45628
O         29.70989       14.44387       79.21409
C         31.48948       13.02003       76.58058
C         31.48877       11.51535       76.49882
O         31.47204       10.75874       77.61076
O         31.60528       10.97039       75.41193
H         31.08083       15.62741       77.27275
H         29.34639       13.30816       76.36058
H         32.32522       13.35300       77.23321
H         31.70769       13.38988       75.55291
N         29.35107       12.25472       78.90050
C         28.87451       11.99935       80.25907
C         27.42567       11.51251       80.27475
O         26.87594       11.34993       81.35514
C         29.79652       10.98040       80.92936
H         29.35523       11.46688       78.24121
H         28.90689       12.93349       80.86126
H         29.78183       10.01865       80.37315
H         30.83723       11.37027       80.94062
H         29.48114       10.79828       81.97859
N         26.74091       11.27645       79.11873
C         25.33869       10.89024       79.03197
C         24.59141       11.91671       78.17823
O         23.50082       11.61972       77.71038
C         25.26241        9.51172       78.33966
C         26.03001        8.45738       79.08636
O         25.69344        8.13947       80.35065
O         26.95778        7.87738       78.54469
H         27.21447       11.38584       78.21257
H         24.85541       10.80660       80.03128
H         25.66870        9.59840       77.30661
H         24.20256        9.18350       78.26824
N         25.16146       13.12439       77.88177
C         24.69473       14.03725       76.85568
C         23.28823       14.55368       76.99083
O         22.54409       14.16611       77.88057
H         26.04353       13.39962       78.33657
H         24.76489       13.52322       75.87322
H         25.38125       14.91183       76.83218
N         22.87320       15.46634       76.06997
C         21.51902       15.98112       75.95911
C         21.02705       15.76487       74.52634
O         21.81306       15.39125       73.66428
C         21.53802       17.46434       76.38354
C         20.18582       18.12853       76.38159
N         19.96829       19.24695       75.65120
O         19.28355       17.66648       77.06415
H         23.56710       15.81222       75.39029
H         20.84917       15.42076       76.64883
H         22.24368       18.02301       75.73153
H         21.92877       17.51551       77.42383
H         20.72154       19.66782       75.09090
H         19.04641       19.70660       75.65688
N         19.71392       15.91737       74.21094
C         19.18317       15.64926       72.88588
C         19.62128       16.67295       71.86280
O         19.35820       17.85009       72.06521
H         19.04291       16.16205       74.95265
H         18.07406       15.70476       72.93589
H         19.44724       14.61472       72.57460
N         20.20331       16.28487       70.68788
C         20.41100       17.22568       69.58317
C         21.52553       18.23278       69.83687
O         21.64985       19.15275       69.03625
C         20.62776       16.49732       68.22540
C         22.01007       15.84324       68.06728
O         19.59196       15.57266       67.99068
H         20.36884       15.27998       70.53574
H         19.45500       17.78537       69.46746
H         20.56774       17.25733       67.41499
H         19.83547       14.70877       68.41555
H         22.79251       16.62504       68.08211
H         22.20662       15.10306       68.86987
H         22.07602       15.34070       67.07941
N         22.38809       18.12375       70.89014
C         23.46245       19.08214       71.14703
C         23.23518       19.77524       72.46025
O         22.34100       19.37446       73.19686
C         24.86939       18.39285       71.10941
C         25.09256       17.21744       72.11223
C         25.14221       17.86495       69.69595
C         25.14412       17.59690       73.59201
H         22.28078       17.33799       71.54835
H         23.45202       19.88614       70.37701
H         25.64494       19.16589       71.30594
H         26.08945       16.77438       71.89653
H         24.33679       16.41839       71.96081
H         25.03507       18.67577       68.94487
H         26.17742       17.46770       69.62513
H         24.44588       17.04063       69.45704
H         25.92927       18.35973       73.75645
H         24.17474       17.95414       73.97742
H         25.41204       16.70080       74.18895
N         24.01108       20.83217       72.83010
C         23.94143       21.40977       74.16106
C         23.24431       22.76439       74.13014
O         23.74548       23.73598       74.67361
C         25.36862       21.41647       74.75012
C         25.41987       21.80092       76.19164
O         24.40507       22.09879       76.80162
O         26.59950       21.87593       76.82173
H         24.69663       21.21782       72.15952
H         23.31032       20.76520       74.81060
H         26.00439       22.11645       74.16112
H         25.81160       20.40600       74.66646
N         22.03803       22.86926       73.50806
C         21.20526       24.07005       73.46560
C         21.97492       25.28426       72.95488
O         22.54685       25.19054       71.87657
C         20.02667       23.80724       72.49943
C         19.09326       24.98436       72.38381
C         18.21158       25.30273       73.42857
C         19.10007       25.77441       71.22143
C         17.34398       26.39303       73.30653
C         18.24301       26.87097       71.10992
C         17.36215       27.17804       72.14963
H         21.68457       22.02728       73.02915
H         20.80422       24.25851       74.48172
H         19.44437       22.90983       72.80270
H         20.46573       23.58230       71.50114
H         18.18889       24.70086       74.32860
H         19.77971       25.55106       70.40803
H         16.65735       26.62987       74.10848
H         18.26238       27.48113       70.21623
H         16.69403       28.02408       72.05770
N         21.99221       26.48314       73.62442
C         22.61848       27.67502       73.08101
C         24.12658       27.62358       73.20581
O         24.78781       28.41249       72.54470
C         21.99427       28.80910       73.90000
C         21.82993       28.15695       75.25806
C         21.32052       26.76466       74.87934
H         22.34560       27.81450       72.01063
H         22.54779       29.77276       73.88229
H         20.96530       28.99114       73.51216
H         22.84743       28.05572       75.69887
H         21.18809       28.70171       75.98270
H         21.58539       26.05239       75.68987
H         20.22482       26.76581       74.69956
N         24.74639       26.74667       74.04734
C         26.19193       26.63740       74.11860
C         26.70074       26.02138       72.82946
O         27.52438       26.63039       72.16118
C         26.66207       25.84186       75.35986
C         26.17975       26.50772       76.67306
C         27.03250       26.12646       77.85568
O         28.21466       26.42810       77.85800
O         26.53327       25.46684       78.91714
H         24.18007       26.15133       74.66395
H         26.62816       27.65495       74.24285
H         27.77316       25.86667       75.32660
H         26.34273       24.77589       75.33672
H         25.10827       26.26192       76.84323
H         26.26990       27.61175       76.59178
N         26.20944       24.82754       72.39394
C         26.62065       24.22645       71.14406
H         27.70586       23.99644       71.17045
H         26.05765       23.28305       70.97485
H         26.40516       24.91759       70.30076
H         25.49475       24.34005       72.95071
Ca        26.37214       23.29020       78.51430
O         27.74794       21.21965       81.30474
H         28.67615       21.28456       81.64346
H         27.20818       20.99029       82.10242
O         26.65230       19.45930       78.64372
H         27.32443       18.89852       79.10637
H         26.24040       18.85518       77.97613
O         24.28685       21.41477       79.85865
H         23.71961       20.87422       79.25352
H         23.66793       21.72928       80.56436
O         28.98563       23.93037       80.10306
H         28.87139       24.91318       80.10228
H         29.96565       23.79771       80.13771
O         29.40838       20.91779       78.63104
H         29.76452       19.99618       78.69491
H         30.03978       21.46278       79.16379
O         25.80914       23.79051       81.46784
H         26.00908       23.31932       82.31492
H         24.82499       23.89825       81.46870

Ca 1.0



