%chk=apoCaM-CA-Ng.loop2.water3.frame385.chk
%nprocshared=20
%mem=10GB
%nosave
#b3lyp/svp scf=(tight,noincore,xqc) Test 
#IOP(5/87=12) Density=Current Pop=(MK,readradii) iop(6/33=2) iop(6/42=6)

apoCaM-CA-Ng.loop2.water3.frame385 

   -2  1 
C         21.17215       86.47700       24.90279
C         20.61588       85.24198       25.54454
O         19.49080       84.87195       25.23957
H         22.10435       86.22896       24.35507
H         20.43948       86.91122       24.18856
H         21.39444       87.23340       25.68293
N         21.35641       84.55381       26.45965
C         20.86844       83.36322       27.14964
C         20.78552       83.61440       28.64061
O         21.37432       84.57494       29.11898
C         21.76513       82.15122       26.82097
C         23.19205       82.32509       27.28048
O         23.47601       82.43434       28.59235
O         24.10172       82.34435       26.46675
H         22.29965       84.90086       26.68782
H         19.83861       83.12826       26.80434
H         21.75231       82.00461       25.71830
H         21.35441       81.23307       27.29180
N         20.03860       82.79795       29.44132
C         19.93316       83.00417       30.88466
C         19.40700       84.39130       31.22469
O         18.98695       85.12067       30.33649
C         19.04992       81.92623       31.52251
H         19.53605       82.00830       29.00653
H         20.95947       82.91864       31.30634
H         19.46324       80.91903       31.30250
H         19.00877       82.04930       32.62511
H         18.01699       81.98601       31.11665
N         19.48791       84.84747       32.50584
C         19.22299       86.23245       32.87476
C         18.13820       86.31248       33.92497
O         18.25717       85.66962       34.95959
C         20.53087       86.87168       33.38152
C         21.59031       86.79684       32.31322
O         21.33171       87.33076       31.10799
O         22.65180       86.23231       32.51972
H         19.85203       84.21689       33.23688
H         18.89999       86.82709       31.99100
H         20.88649       86.35985       34.30234
H         20.34308       87.94128       33.62131
N         17.05715       87.12256       33.73594
C         15.98890       87.21102       34.72104
C         14.97641       88.32671       34.49888
O         13.94677       88.27567       35.15651
H         17.01083       87.66729       32.86607
H         16.41489       87.37944       35.73439
H         15.46219       86.23200       34.73001
N         15.21382       89.40745       33.69212
C         14.28811       90.53262       33.56110
C         13.88032       90.78772       32.11005
O         13.10567       91.70691       31.88061
C         14.97006       91.79052       34.13767
C         15.35978       91.59220       35.58359
N         16.65902       91.63544       35.96294
O         14.49275       91.38420       36.41937
H         16.11405       89.50212       33.20567
H         13.35460       90.34704       34.13701
H         14.28715       92.66531       34.07497
H         15.87395       92.01742       33.52991
H         17.40753       91.80177       35.27454
H         16.92083       91.49332       36.94986
N         14.36015       90.03500       31.07702
C         14.03904       90.27715       29.67850
C         14.53048       91.63058       29.21457
O         15.62688       92.02503       29.58733
H         14.99639       89.24882       31.26620
H         12.94751       90.15980       29.49927
H         14.56335       89.51110       29.06894
N         13.77726       92.38411       28.36062
C         14.17541       93.72083       27.91064
C         15.49059       93.75585       27.12036
O         15.95007       94.85802       26.85050
C         13.04158       94.41128       27.09362
C         12.75955       93.75516       25.72843
O         11.86601       94.50961       27.86278
H         12.87139       91.99956       28.05595
H         14.32668       94.33243       28.82802
H         13.36084       95.45307       26.87045
H         11.36330       93.65720       27.78897
H         13.66105       93.80327       25.08889
H         12.44833       92.69572       25.83910
H         11.95165       94.30887       25.20468
N         16.15256       92.62855       26.71538
C         17.41504       92.65093       25.97425
C         18.49177       91.99012       26.81235
O         18.30216       90.85395       27.23071
C         17.27202       91.91728       24.60993
C         16.13008       92.48888       23.73342
C         18.60599       91.92177       23.83422
C         16.27606       93.96568       23.34785
H         15.75652       91.70234       26.92987
H         17.73149       93.69459       25.76292
H         17.01073       90.85359       24.80988
H         15.17056       92.35321       24.26962
H         16.06376       91.89035       22.79918
H         18.49237       91.38380       22.86984
H         18.95251       92.95680       23.63379
H         19.40149       91.40340       24.40941
H         17.19876       94.13842       22.75809
H         15.40968       94.26674       22.72280
H         16.28678       94.61791       24.24277
N         19.65764       92.64595       27.09107
C         20.71586       92.04175       27.90038
C         21.76435       93.04002       28.43824
O         22.75616       92.59694       28.99799
C         21.38663       90.87333       27.11641
C         22.07558       89.89219       28.03218
O         22.02329       90.03508       29.24463
O         22.65183       88.77502       27.55451
H         19.76731       93.58794       26.69875
H         20.21712       91.62347       28.80374
H         22.07539       91.27279       26.34331
H         20.61650       90.27037       26.59383
N         21.57612       94.39316       28.41049
C         22.49825       95.33932       29.03077
C         23.81821       95.40284       28.26821
O         23.76646       95.62510       27.06557
C         21.85556       96.74697       29.03215
C         22.58817       97.69846       29.94110
C         23.27667       98.80818       29.42766
C         22.56498       97.48381       31.33107
C         23.93865       99.68434       30.29471
C         23.22056       98.36424       32.19277
C         23.90881       99.46348       31.67536
H         20.70979       94.78300       28.02686
H         22.63431       95.03406       30.08860
H         20.80968       96.69327       29.40684
H         21.80850       97.12738       27.98706
H         23.30618       98.99172       28.36104
H         22.02922       96.63942       31.74788
H         24.47282      100.53688       29.89707
H         23.19118       98.19405       33.26134
H         24.41621      100.14472       32.34538
N         25.04342       95.28630       28.87266
C         26.29444       95.47962       28.15568
C         26.70864       94.25197       27.36390
O         27.66327       94.34950       26.60497
C         27.28746       95.80180       29.27457
C         26.78237       94.91110       30.39443
C         25.26794       95.10533       30.29214
H         26.23095       96.35142       27.46615
H         28.36031       95.69084       29.00603
H         27.11588       96.85387       29.59961
H         27.02579       93.86071       30.11475
H         27.20540       95.11373       31.40076
H         24.75000       94.21502       30.70838
H         24.94384       96.02893       30.81652
N         26.06743       93.05723       27.50331
C         26.41706       91.88514       26.71502
C         26.01617       92.13702       25.27863
O         26.86339       92.07374       24.39859
C         25.72436       90.62029       27.26602
C         26.21065       90.29709       28.69216
C         25.57363       89.05069       29.22931
O         24.82963       89.10318       30.35062
O         25.74871       87.98023       28.67098
H         25.30939       92.97131       28.19366
H         27.51422       91.69940       26.77678
H         25.97339       89.76099       26.60413
H         24.62317       90.75734       27.26500
H         25.97149       91.13765       29.37680
H         27.31306       90.15423       28.68904
N         24.73040       92.46914       24.97738
C         24.30191       92.76361       23.62897
H         23.22342       93.03082       23.62717
H         24.87939       93.62433       23.22876
H         24.45345       91.87673       22.97909
H         24.03446       92.53980       25.73465
Ca        22.59044       87.29176       29.23662
O         19.75801       87.31718       27.98649
H         19.06735       86.61593       28.09068
H         19.56150       87.97165       28.70280
O         24.53439       86.28183       26.72256
H         24.78340       85.42000       27.14203
H         24.62431       86.12248       25.74995
O         24.46091       84.98829       30.19193
H         25.03865       84.32166       29.74300
H         24.03061       84.48642       30.92891

Ca 1.0



