%chk=apoCaM-CA-Ng.loop2.water5.frame1493.chk
%nprocshared=20
%mem=10GB
%nosave
#b3lyp/svp scf=(tight,noincore,xqc) Test 
#IOP(5/87=12) Density=Current Pop=(MK,readradii) iop(6/33=2) iop(6/42=6)

apoCaM-CA-Ng.loop2.water5.frame1493 

   -2  1 
C         49.97221       76.57624       20.79998
C         51.31126       76.07959       21.29390
O         51.80086       76.67587       22.24174
H         49.22436       76.48550       21.61507
H         50.07284       77.64877       20.53165
H         49.55842       76.07401       19.91263
N         52.00664       75.02904       20.76134
C         51.57076       74.14917       19.68380
C         52.46755       74.30807       18.45713
O         51.92266       74.63086       17.40970
C         51.39573       72.70460       20.22099
C         52.57900       72.13711       20.95017
O         52.53108       71.87286       22.26333
O         53.60866       71.89594       20.36377
H         52.92486       74.81731       21.18260
H         50.55879       74.40206       19.32929
H         51.09687       72.02094       19.39583
H         50.55721       72.73358       20.95052
N         53.82433       74.12932       18.48558
C         54.66660       74.28949       17.29706
C         55.28669       72.97804       16.82711
O         55.80717       72.95671       15.72018
C         55.75752       75.33016       17.56943
H         54.28243       73.89428       19.37316
H         54.05147       74.65351       16.44656
H         55.29958       76.29718       17.86693
H         56.42112       74.98560       18.39167
H         56.37803       75.49741       16.66332
N         55.29482       71.85733       17.60485
C         55.85407       70.57604       17.19267
C         54.88821       69.39784       17.36700
O         55.21864       68.33421       16.86000
C         57.18574       70.33072       17.93687
C         57.09766       70.53331       19.42872
O         57.86151       71.47080       20.01985
O         56.33645       69.87193       20.10953
H         54.95703       71.92718       18.55998
H         56.09102       70.60298       16.10615
H         57.92941       71.06239       17.55390
H         57.56826       69.31234       17.70870
N         53.70090       69.47344       18.04863
C         52.77194       68.34791       18.14443
C         53.34519       67.08878       18.78390
O         52.70636       66.05203       18.67707
H         53.40947       70.35476       18.48428
H         52.46572       68.08859       17.10870
H         51.85638       68.64696       18.70121
N         54.53973       67.08995       19.43837
C         55.23329       65.89196       19.89694
C         55.35547       65.88262       21.41257
O         54.94188       64.91534       22.03670
C         56.62582       65.87523       19.22497
C         57.43916       64.65155       19.55952
N         57.02112       63.41960       19.18804
O         58.50014       64.77740       20.15269
H         55.01558       67.98431       19.58015
H         54.68454       64.97611       19.58430
H         57.18899       66.78558       19.53029
H         56.50399       65.91606       18.12061
H         56.14000       63.29526       18.66911
H         57.58917       62.58769       19.40626
N         55.91703       66.93219       22.07009
C         56.11318       66.94915       23.51604
C         56.63351       68.29333       24.00183
O         56.71389       69.22108       23.20954
H         56.22236       67.73401       21.50557
H         56.84258       66.14954       23.76513
H         55.15354       66.74511       24.03819
N         57.04286       68.51904       25.28171
C         57.12044       67.53113       26.35474
C         56.37493       68.00846       27.60056
O         55.56390       67.26014       28.12509
C         58.60954       67.26513       26.69636
C         59.34921       66.62377       25.51589
O         59.25480       68.46198       27.05300
H         57.40453       69.46396       25.48012
H         56.68559       66.55506       26.04852
H         58.63776       66.54571       27.54941
H         59.99862       68.22376       27.66523
H         59.34317       67.29333       24.62982
H         60.40480       66.42267       25.79562
H         58.87185       65.65859       25.24289
N         56.62006       69.24313       28.13047
C         56.05011       69.76810       29.37623
C         54.52019       69.70874       29.33897
O         53.95502       70.22313       28.38707
C         56.53219       71.24673       29.60040
C         58.08136       71.31963       29.76275
C         55.84524       71.87651       30.82785
C         58.62796       72.74557       29.88177
H         57.25346       69.85412       27.60395
H         56.43808       69.17102       30.22061
H         56.23246       71.84339       28.70906
H         58.58913       70.87882       28.88384
H         58.39500       70.73609       30.65520
H         54.74301       71.85812       30.71840
H         56.13054       71.34566       31.75952
H         56.11267       72.94520       30.92589
H         58.33097       73.34713       28.99639
H         58.27690       73.24608       30.80581
H         59.73668       72.71110       29.93046
N         53.74910       69.17948       30.34380
C         54.25347       68.62843       31.60542
C         53.22663       68.72602       32.74223
O         52.11178       69.18868       32.53270
C         54.76878       67.17796       31.40686
C         53.71888       66.18982       30.96658
O         54.03472       65.02407       30.78978
O         52.44053       66.56281       30.76348
H         52.72747       69.26507       30.22403
H         55.08973       69.26166       31.96309
H         55.21538       66.80661       32.35167
H         55.57995       67.16804       30.65548
N         53.56924       68.31576       33.99706
C         52.69838       68.37555       35.17004
C         53.40895       69.11307       36.29999
O         54.59069       68.84039       36.48582
C         52.38396       66.94685       35.64903
C         51.63001       66.14347       34.61554
C         52.18773       64.96525       34.09130
C         50.35629       66.55238       34.17747
C         51.48604       64.21176       33.14572
C         49.65933       65.79629       33.23019
C         50.22345       64.62672       32.71515
H         54.51010       67.91650       34.13657
H         51.73499       68.85200       34.92923
H         51.75839       66.99551       36.56763
H         53.33667       66.43770       35.91605
H         53.16420       64.62756       34.41465
H         49.89877       67.45175       34.57000
H         51.92147       63.30461       32.74778
H         48.67978       66.11537       32.89774
H         49.68152       64.04081       31.98420
N         52.79409       69.98304       37.16606
C         51.37624       70.33447       37.21299
C         50.86968       70.98171       35.94887
O         49.87400       70.52820       35.40088
C         51.28683       71.33561       38.37972
C         52.37850       70.84157       39.29723
C         53.49453       70.55221       38.30191
H         50.79614       69.41656       37.45901
H         51.60697       72.35121       38.05388
H         50.27742       71.42375       38.83506
H         52.66241       71.53519       40.11714
H         52.03996       69.87682       39.73951
H         54.00715       71.48289       37.97059
H         54.22182       69.85451       38.77239
N         51.53159       72.04373       35.41846
C         51.11910       72.71224       34.19440
C         49.79540       73.42903       34.42664
O         49.75230       74.29528       35.28932
C         52.19127       73.73333       33.75889
C         53.52699       73.04823       33.42060
C         54.57171       74.06042       33.05460
O         54.40490       74.80347       32.10074
O         55.70811       74.14360       33.77320
H         52.38272       72.36945       35.90165
H         51.04152       71.95705       33.38488
H         52.34924       74.47614       34.57290
H         51.83329       74.27255       32.85389
H         53.37576       72.34415       32.57578
H         53.90265       72.46406       34.28626
N         48.66140       73.15280       33.72182
C         48.57715       72.14985       32.68274
H         47.54754       72.12606       32.26678
H         49.28289       72.38941       31.86000
H         48.80401       71.14630       33.09795
H         47.80576       73.68824       33.93746
Ca        54.54865       71.19806       23.01662
O         54.46681       70.64727       25.74165
H         54.51519       71.63660       25.73629
H         53.56688       70.43992       25.38292
O         57.58090       72.31165       23.40058
H         57.70039       73.29012       23.30764
H         58.30053       71.92015       22.84453
O         54.36078       74.13779       23.51256
H         54.99879       74.81393       23.85228
H         53.73693       73.97971       24.26468
O         53.26044       68.54940       22.61826
H         52.59373       69.15082       23.03538
H         52.84799       68.27579       21.76123
O         56.21257       73.98817       21.11894
H         56.00359       74.94579       21.25828
H         57.06900       73.99197       20.62325

Ca 1.0



