%chk=apoCaM-CA-Ng.loop2.water4.frame1225.chk
%nprocshared=20
%mem=10GB
%nosave
#b3lyp/svp scf=(tight,noincore,xqc) Test 
#IOP(5/87=12) Density=Current Pop=(MK,readradii) iop(6/33=2) iop(6/42=6)

apoCaM-CA-Ng.loop2.water4.frame1225 

   -2  1 
C         29.85394       91.44573      120.11332
C         29.61736       91.15240      118.65362
O         28.98666       91.98684      118.02085
H         30.38665       92.41717      120.19257
H         28.87614       91.53645      120.62987
H         30.46196       90.70912      120.66004
N         30.07549       90.04813      117.99136
C         30.80863       88.91503      118.55722
C         30.06485       87.60959      118.23504
O         28.98791       87.66351      117.65594
C         32.30311       88.97874      118.12481
C         32.52862       88.92027      116.64641
O         33.22657       87.90920      116.10650
O         32.01803       89.74695      115.90815
H         29.87419       90.00699      116.97987
H         30.83806       88.95851      119.65743
H         32.86146       88.14956      118.60782
H         32.73650       89.93185      118.49750
N         30.55243       86.40192      118.64938
C         29.83665       85.11998      118.58231
C         29.49887       84.57754      117.18835
O         28.97691       83.47196      117.13510
C         28.57332       85.17793      119.45269
H         31.46552       86.38918      119.12733
H         30.50223       84.35720      119.04687
H         27.83011       85.89122      119.04245
H         28.09839       84.17491      119.51311
H         28.84170       85.48929      120.48476
N         29.78190       85.24021      116.03043
C         29.54193       84.67774      114.69563
C         30.86684       84.39012      114.00931
O         31.89013       84.42810      114.68094
C         28.52776       85.52924      113.87977
C         28.77161       86.99088      113.57387
O         27.88741       87.60292      112.99651
O         29.83343       87.68778      114.01181
H         30.23200       86.15711      116.08757
H         29.05200       83.68207      114.76751
H         27.57473       85.49911      114.45254
H         28.32383       85.02175      112.91586
N         30.93650       84.04467      112.69117
C         32.19518       83.74190      112.03399
C         32.51984       84.79009      111.00361
O         32.62651       85.95449      111.35773
H         30.08240       84.00476      112.11875
H         32.13823       82.72562      111.58835
H         33.04200       83.73144      112.75258
N         32.76050       84.43557      109.71386
C         33.21904       85.37754      108.69964
C         32.16761       86.41953      108.35452
O         31.02372       86.05910      108.11250
C         33.61233       84.61697      107.41535
C         34.24564       85.54037      106.39981
N         33.68545       85.72477      105.18250
O         35.27734       86.13102      106.68485
H         32.68818       83.43686      109.46321
H         34.14580       85.86997      109.07182
H         32.71448       84.11670      106.99011
H         34.35667       83.82980      107.66532
H         32.81457       85.24090      104.92142
H         34.12322       86.36040      104.49899
N         32.54757       87.71389      108.14789
C         31.67760       88.71645      107.55081
C         31.81291       90.07943      108.19924
O         32.50372       90.19882      109.20033
H         33.54384       87.95644      108.26043
H         30.61418       88.39282      107.53901
H         32.02260       88.83765      106.50195
N         31.23840       91.19738      107.65908
C         30.40244       91.20362      106.45700
C         31.09915       91.86370      105.26721
O         30.54731       91.79894      104.17721
C         29.05498       91.90456      106.75358
C         28.28427       91.20139      107.87734
O         29.29213       93.24375      107.11007
H         31.42441       92.10252      108.12009
H         30.18358       90.16758      106.13149
H         28.43613       91.86810      105.82636
H         28.43483       93.73147      106.99678
H         28.08024       90.14548      107.60181
H         28.85906       91.22464      108.82765
H         27.31384       91.71546      108.04545
N         32.29096       92.52175      105.38879
C         32.99944       93.15211      104.27193
C         34.45651       92.67731      104.24824
O         35.06462       92.64377      105.30891
C         32.89087       94.70358      104.33786
C         33.29422       95.28014      105.72061
C         31.46309       95.12845      103.93896
C         33.32715       96.80767      105.76010
H         32.71546       92.61539      106.32132
H         32.51743       92.85463      103.32681
H         33.56768       95.11377      103.55704
H         34.31160       94.92994      105.98670
H         32.58447       94.92782      106.50054
H         31.21334       94.72156      102.93433
H         30.71462       94.75571      104.66870
H         31.37513       96.22894      103.85290
H         33.64783       97.14102      106.76927
H         34.04852       97.19119      105.01062
H         32.32691       97.24511      105.56947
N         35.10827       92.24676      103.12122
C         34.60917       92.32045      101.75139
C         35.67998       92.91343      100.83936
O         36.75965       92.34665      100.74359
C         34.19166       90.91283      101.29332
C         33.51371       90.92820       99.94892
O         32.23029       90.53344       99.84199
O         34.11604       91.29070       98.95114
H         36.04807       91.83791      103.24860
H         33.71481       92.96341      101.68568
H         33.46559       90.51437      102.03626
H         35.06839       90.23023      101.27030
N         35.43297       94.05132      100.12646
C         36.38408       94.65309       99.18722
C         35.78492       95.94584       98.63416
O         34.66844       95.88489       98.13536
C         36.67645       93.71275       97.99011
C         37.76754       94.29715       97.12026
C         37.45185       94.99788       95.94360
C         39.11558       94.17077       97.50233
C         38.46725       95.57117       95.17045
C         40.12820       94.73270       96.71803
C         39.80387       95.43661       95.55570
H         34.51945       94.51037      100.26414
H         37.33447       94.84999       99.72155
H         35.73959       93.57397       97.40683
H         36.99832       92.69849       98.30441
H         36.42075       95.12041       95.63780
H         39.38122       93.63479       98.40518
H         38.21805       96.12411       94.27406
H         41.16428       94.62767       97.01413
H         40.58813       95.87967       94.95500
N         36.44175       97.14714       98.63842
C         37.81893       97.37282       99.04966
C         38.00817       97.44860      100.55711
O         39.13248       97.69307      100.97081
C         38.16051       98.69982       98.35745
C         36.84631       99.44481       98.43791
C         35.85532       98.34686       98.07154
H         38.50726       96.60436       98.64281
H         39.04912       99.23452       98.75495
H         38.34069       98.49154       97.27630
H         36.68792       99.72587       99.50373
H         36.76704      100.35807       97.81075
H         34.85651       98.58594       98.49708
H         35.77850       98.20974       96.96953
N         36.98655       97.23655      101.43775
C         37.16037       97.28035      102.88813
C         36.26068       98.34443      103.50009
O         35.35234       98.81423      102.82914
C         36.82167       95.88436      103.46359
C         37.82970       94.78892      103.07616
C         39.15700       94.93468      103.77387
O         39.56831       93.97801      104.62826
O         39.87656       95.89709      103.56416
H         36.04493       97.01937      101.08196
H         38.19595       97.57016      103.14084
H         35.82075       95.59753      103.07572
H         36.73910       95.88370      104.56549
H         37.97823       94.75463      101.97834
H         37.39898       93.81718      103.39119
N         36.45178       98.82329      104.76554
C         37.55630       98.44441      105.62639
H         38.52321       98.69399      105.14005
H         37.49982       99.00895      106.58052
H         37.53191       97.36954      105.87742
H         35.80136       99.54048      105.12213
Ca        31.90378       87.07192      114.56300
O         35.10815       89.14035      114.21283
H         35.55257       89.78736      114.81591
H         35.81889       88.49619      113.96792
O         32.54546       90.77126      112.92989
H         33.50769       91.00344      112.91056
H         32.15836       91.25912      112.16023
O         30.63169       88.69788      111.30468
H         29.96048       88.04648      110.98084
H         31.48796       88.37415      110.92996
O         34.25948       88.31866      111.47997
H         34.25837       89.16369      110.96552
H         34.83694       87.70884      110.95600

Ca 1.0



