%chk=apoCaM-CA-Ng.loop2.water3.frame430.chk
%nprocshared=20
%mem=10GB
%nosave
#b3lyp/svp scf=(tight,noincore,xqc) Test 
#IOP(5/87=12) Density=Current Pop=(MK,readradii) iop(6/33=2) iop(6/42=6)

apoCaM-CA-Ng.loop2.water3.frame430 

   -2  1 
C        102.25467       84.43053       60.26018
C        103.34400       84.77640       59.28628
O        104.49504       84.82465       59.69190
H        101.25735       84.43264       59.77328
H        102.44013       83.42461       60.69157
H        102.24511       85.17914       61.08142
N        103.06079       85.01772       57.97405
C        104.08026       85.41625       57.00769
C        104.56114       86.81649       57.33827
O        103.75033       87.73380       57.32707
C        103.50436       85.38014       55.57958
C        104.53878       85.75302       54.55362
O        105.66783       85.02810       54.43594
O        104.36005       86.71465       53.82356
H        102.08563       84.90939       57.65483
H        104.91703       84.68261       57.05021
H        102.63472       86.07111       55.50835
H        103.14712       84.35139       55.35865
N        105.86200       87.05202       57.67425
C        106.33545       88.36734       58.09939
C        105.52056       88.84010       59.28449
O        105.12154       89.99516       59.30742
C        107.82343       88.32687       58.45573
H        106.52248       86.25917       57.67881
H        106.21842       89.09458       57.26443
H        108.16839       89.34102       58.75431
H        108.01625       87.61987       59.28965
H        108.41211       88.01137       57.56761
N        105.14046       87.94672       60.24509
C        104.21586       88.23696       61.32941
C        104.84973       89.23909       62.26351
O        104.30738       90.31569       62.47621
C        102.83994       88.67135       60.75770
C        101.75560       88.79036       61.78998
O        100.64503       89.15797       61.44368
O        101.98212       88.48694       63.08298
H        105.48920       86.98164       60.18133
H        104.05408       87.29418       61.90057
H        102.50266       87.91774       60.01301
H        102.92817       89.64988       60.24307
N        106.04083       88.93175       62.84769
C        106.75973       89.84591       63.71215
C        106.96051       89.31206       65.11049
O        107.55852       90.03346       65.89468
H        106.47319       88.01574       62.64636
H        106.22851       90.81692       63.80003
H        107.75426       90.04542       63.25840
N        106.51441       88.08027       65.50972
C        106.71511       87.57889       66.86720
C        107.66401       86.39029       66.84408
O        107.98505       85.89518       65.77304
C        105.34034       87.22009       67.47681
C        105.40823       86.90155       68.95000
N        105.05989       85.68100       69.41934
O        105.78170       87.76363       69.73139
H        106.03017       87.46307       64.84186
H        107.19122       88.36629       67.48911
H        104.90678       86.36947       66.90637
H        104.65175       88.08529       67.36186
H        104.74809       84.93685       68.78249
H        105.11159       85.47515       70.42799
N        108.19231       85.91262       68.00710
C        109.11563       84.79394       68.06871
C        108.55006       83.73337       68.97005
O        108.32938       84.01586       70.13865
H        107.95453       86.37649       68.89438
H        110.08332       85.14150       68.48867
H        109.31845       84.37549       67.06044
N        108.27670       82.48784       68.48703
C        107.70942       81.42526       69.31420
C        106.28342       81.08822       68.88508
O        105.62268       80.35543       69.61039
C        108.66838       80.20530       69.34574
C        108.76648       79.44617       68.01091
O        109.94560       80.61508       69.77402
H        108.46961       82.29311       67.49449
H        107.62218       81.78697       70.36165
H        108.29635       79.47238       70.09433
H        110.37772       81.11217       69.02988
H        109.55111       78.66292       68.08360
H        107.80240       78.94644       67.78560
H        109.03101       80.11882       67.17022
N        105.72759       81.61447       67.75176
C        104.33302       81.45673       67.35357
C        103.73376       82.84351       67.17624
O        104.34381       83.67766       66.51686
C        104.21005       80.65758       66.02379
C        104.88037       79.26094       66.08977
C        102.73037       80.51982       65.59975
C        104.27638       78.28664       67.10848
H        106.30808       82.18594       67.12177
H        103.75534       80.90247       68.12544
H        104.73768       81.22399       65.22396
H        105.95885       79.38738       66.31544
H        104.80817       78.78949       65.08526
H        102.13112       80.01314       66.38572
H        102.27270       81.51226       65.42162
H        102.64555       79.94633       64.65372
H        104.82663       77.32377       67.06098
H        104.36035       78.67526       68.14089
H        103.21102       78.07618       66.88444
N        102.49145       83.12400       67.65142
C        101.81088       84.39690       67.43500
C        101.09470       84.85591       68.71486
O        100.31632       85.79564       68.66342
C        100.83394       84.18451       66.25738
C        100.24815       85.44230       65.66952
O         99.49572       85.35262       64.71345
O        100.57917       86.66335       66.13334
H        101.95236       82.35107       68.07478
H        102.53356       85.17992       67.11219
H        100.02691       83.48771       66.56507
H        101.39789       83.71319       65.42327
N        101.31415       84.23030       69.91005
C        100.58449       84.53777       71.13444
C         99.12521       84.09743       71.00566
O         98.90918       82.93312       70.69503
C        101.19263       83.72944       72.31178
C        100.39864       83.94904       73.57762
C        100.49814       85.15442       74.28998
C         99.50351       82.95871       74.01913
C         99.70832       85.36531       75.42528
C         98.70671       83.17935       75.14352
C         98.80872       84.38145       75.84699
H        102.03364       83.49720       69.96780
H        100.68688       85.61701       71.37528
H        102.26290       83.97958       72.48089
H        101.15489       82.65119       72.03682
H        101.17942       85.92975       73.96213
H         99.39826       82.02901       73.47325
H         99.78474       86.29593       75.97176
H         98.00355       82.42078       75.46195
H         98.18703       84.55111       76.71599
N         98.07059       84.90392       71.34646
C         96.71741       84.39053       71.51149
C         95.98902       84.17988       70.20003
O         94.91952       83.58627       70.21913
C         96.04969       85.44875       72.39104
C         96.70779       86.72092       71.89090
C         98.16773       86.28698       71.76256
H         96.73122       83.42426       72.06527
H         94.93892       85.43485       72.39167
H         96.40171       85.30099       73.43862
H         96.30711       86.92266       70.87138
H         96.55217       87.62320       72.51868
H         98.68657       86.92992       71.01937
H         98.68536       86.33063       72.74092
N         96.49299       84.63844       69.02444
C         95.87119       84.36581       67.73641
C         95.97954       82.88458       67.44830
O         94.96334       82.24425       67.21693
C         96.57810       85.17809       66.63977
C         96.29374       86.68227       66.79349
C         97.18561       87.46247       65.88168
O         97.19512       87.21288       64.56156
O         97.95790       88.28753       66.34336
H         97.36171       85.19270       69.03973
H         94.79916       84.67018       67.74297
H         96.22665       84.86153       65.63243
H         97.66927       84.98134       66.70600
H         96.48529       87.01703       67.83588
H         95.22604       86.88378       66.55603
N         97.19285       82.26742       67.47426
C         97.34510       80.85226       67.22474
H         98.41353       80.56512       67.32578
H         96.75015       80.27130       67.96137
H         97.00467       80.61103       66.19596
H         98.03650       82.81561       67.69781
Ca        98.88651       88.11518       63.38831
O         96.97137       90.09248       62.42520
H         96.88574       90.42471       63.35414
H         96.57348       89.18572       62.44936
O        100.53304       90.03393       65.20070
H        101.52066       90.03052       65.27112
H        100.26736       90.94643       65.47700
O         98.92960       85.93135       61.27885
H         98.27152       86.60279       60.96745
H         98.40273       85.31261       61.84464

Ca 1.0



