%chk=apoCaM-CA-Ng.loop2.water3.frame877.chk
%nprocshared=20
%mem=10GB
%nosave
#b3lyp/svp scf=(tight,noincore,xqc) Test 
#IOP(5/87=12) Density=Current Pop=(MK,readradii) iop(6/33=2) iop(6/42=6)

apoCaM-CA-Ng.loop2.water3.frame877 

   -2  1 
C         11.01999        1.57521       -8.20308
C         10.10390        2.76237       -8.13347
O          8.95673        2.64772       -8.54130
H         12.02511        1.81263       -7.79469
H         10.58911        0.74216       -7.60868
H         11.13371        1.25031       -9.25801
N         10.54229        3.94680       -7.61908
C          9.69669        5.13449       -7.52028
C          8.56089        4.97043       -6.49852
O          7.76163        5.88844       -6.37743
C         10.57905        6.35512       -7.16159
C          9.83708        7.66204       -7.23263
O          9.73574        8.44200       -6.13972
O          9.33486        8.02784       -8.28382
H         11.52822        4.01268       -7.32037
H          9.26217        5.32281       -8.52806
H         11.42156        6.41869       -7.88501
H         11.00645        6.21649       -6.14426
N          8.41630        3.84333       -5.73511
C          7.36518        3.66421       -4.73979
C          8.00987        3.29638       -3.40708
O          8.69084        2.28026       -3.37243
C          6.42394        2.54551       -5.19329
H          9.07335        3.06070       -5.84628
H          6.74827        4.57769       -4.66271
H          6.97459        1.58890       -5.32150
H          5.61409        2.39995       -4.44701
H          5.96088        2.81685       -6.16646
N          7.90532        4.03828       -2.26369
C          7.14342        5.27607       -2.12229
C          7.70483        6.17327       -1.02078
O          8.60923        5.77264       -0.30379
C          5.63237        4.96743       -1.97281
C          5.28807        3.94323       -0.90559
O          5.49649        4.18274        0.40550
O          4.75682        2.89607       -1.23743
H          8.43614        3.69702       -1.44761
H          7.31254        5.89799       -3.02780
H          5.27453        4.55716       -2.93986
H          5.06306        5.90436       -1.79536
N          7.29019        7.47139       -0.93582
C          7.89826        8.46271       -0.05810
C          6.84378        9.31128        0.61737
O          6.73874       10.47595        0.25974
H          6.58945        7.80831       -1.61411
H          8.49125        9.13870       -0.71306
H          8.61057        8.02713        0.67055
N          5.98988        8.84726        1.57171
C          6.05036        7.52493        2.17681
C          7.25294        7.47359        3.11272
O          7.29927        8.25235        4.05537
C          4.72257        7.27575        2.93448
C          4.55584        5.90324        3.52435
N          3.40578        5.58724        4.16303
O          5.43943        5.07082        3.42273
H          5.25775        9.49855        1.89958
H          6.11430        6.76000        1.37344
H          3.88942        7.41400        2.21030
H          4.60633        8.02649        3.74593
H          2.64613        6.27803        4.24755
H          3.26608        4.65294        4.57071
N          8.27720        6.60142        2.89792
C          9.50106        6.59648        3.68837
C          9.48024        5.59886        4.82494
O         10.47428        5.51307        5.53183
H          8.22358        5.96227        2.09663
H          9.71068        7.61253        4.08666
H         10.34967        6.33792        3.01809
N          8.39974        4.80568        5.06161
C          8.33507        3.80410        6.11790
C          8.16755        2.42610        5.49836
O          8.07600        2.31472        4.28386
C          7.16675        4.13965        7.08427
C          7.40802        5.45789        7.82019
O          5.95402        4.23694        6.38566
H          7.57732        4.89060        4.45588
H          9.27857        3.77839        6.70577
H          7.08151        3.36102        7.87658
H          5.66276        3.30993        6.20141
H          8.34382        5.39744        8.41524
H          7.48351        6.30416        7.10525
H          6.56363        5.65818        8.51456
N          8.11478        1.32047        6.28846
C          7.92257       -0.02942        5.77317
C          6.55109       -0.47335        6.22947
O          6.28610       -0.47644        7.42467
C          9.08757       -0.94788        6.23114
C          8.84993       -2.41201        5.77699
C         10.41237       -0.39550        5.66058
C          9.94389       -3.38059        6.23520
H          8.18369        1.43725        7.31136
H          7.92663       -0.03388        4.66095
H          9.14293       -0.92834        7.34251
H          8.76326       -2.46249        4.66938
H          7.89488       -2.77273        6.21575
H         11.28588       -0.97318        6.02026
H         10.39611       -0.41977        4.54881
H         10.57768        0.65296        5.98553
H         10.05155       -3.34827        7.34027
H          9.67255       -4.41395        5.93402
H         10.91888       -3.14508        5.76268
N          5.60129       -0.78502        5.30234
C          4.19554       -0.97518        5.62064
C          3.69823       -2.37479        5.32360
O          2.54518       -2.63832        5.63724
C          3.37408        0.05330        4.80085
C          3.74428        1.46066        5.17417
O          3.58419        1.81331        6.33212
O          4.23040        2.36499        4.28860
H          5.86546       -0.81252        4.30777
H          4.01896       -0.81175        6.70789
H          2.28996       -0.07864        5.01043
H          3.54173       -0.10688        3.71316
N          4.46525       -3.31665        4.69946
C          3.92662       -4.62476        4.35141
C          4.79638       -5.29782        3.30441
O          5.95727       -5.56336        3.58465
C          3.73771       -5.52959        5.59753
C          3.10798       -6.85703        5.21563
C          3.87137       -7.86770        4.59780
C          1.74148       -7.08821        5.45048
C          3.27769       -9.06970        4.20762
C          1.14983       -8.29265        5.05355
C          1.91641       -9.28048        4.42982
H          5.41326       -3.07132        4.38095
H          2.91691       -4.46253        3.92964
H          3.06234       -5.00071        6.30232
H          4.69210       -5.70514        6.14066
H          4.92809       -7.73302        4.41585
H          1.12835       -6.32958        5.92002
H          3.87437       -9.83571        3.72863
H          0.09410       -8.45804        5.22297
H          1.45683      -10.20971        4.11907
N          4.28789       -5.65785        2.08350
C          5.01084       -6.46685        1.11925
C          6.05775       -5.69161        0.34027
O          6.70405       -6.30729       -0.49726
C          3.89035       -6.99948        0.21582
C          2.93431       -5.82783        0.18060
C          2.92903       -5.40078        1.64199
H          5.50157       -7.33685        1.60994
H          4.21477       -7.39201       -0.77088
H          3.36389       -7.81893        0.75923
H          3.41468       -5.02306       -0.42163
H          1.92565       -6.03169       -0.23680
H          2.64609       -4.32647        1.69847
H          2.23606       -6.02250        2.25240
N          6.29469       -4.35936        0.53556
C          7.30333       -3.64210       -0.24016
C          8.72628       -4.12535        0.03022
O          9.62307       -3.69288       -0.68138
C          7.20707       -2.11415       -0.03122
C          7.54333       -1.64079        1.39454
C          7.46841       -0.14252        1.46952
O          6.58745        0.45222        2.29267
O          8.20544        0.54479        0.78083
H          5.71535       -3.83568        1.20566
H          7.07616       -3.82655       -1.31449
H          6.17795       -1.78359       -0.29292
H          7.90833       -1.62513       -0.74355
H          8.57104       -1.95446        1.67714
H          6.83149       -2.08120        2.12376
N          9.02461       -4.99981        1.03446
C         10.37672       -5.45568        1.27277
H         11.03526       -4.59060        1.49968
H         10.39512       -6.15373        2.13664
H         10.75934       -5.98975        0.37687
H          8.28913       -5.35292        1.66176
Ca         4.75731        2.77771        2.08558
O          4.03485       -0.01709        0.18964
H          3.17953       -0.43590        0.45886
H          3.85512        0.95427        0.23704
O          8.58122        3.42283        1.82015
H          9.39635        3.14845        1.33172
H          7.92275        3.62966        1.11247
O          1.96449        3.73795        1.62441
H          1.97892        2.87830        2.11626
H          2.30839        3.51376        0.72307

Ca 1.0



