%chk=apoCaM-CA-Ng.loop2.water3.frame760.chk
%nprocshared=20
%mem=10GB
%nosave
#b3lyp/svp scf=(tight,noincore,xqc) Test 
#IOP(5/87=12) Density=Current Pop=(MK,readradii) iop(6/33=2) iop(6/42=6)

apoCaM-CA-Ng.loop2.water3.frame760 

   -2  1 
C         74.82058       29.48372        4.37398
C         75.52211       30.59625        3.64786
O         75.60062       30.55026        2.42891
H         73.76197       29.43465        4.04049
H         75.31827       28.51727        4.15502
H         74.82874       29.64631        5.47305
N         76.01452       31.66078        4.33835
C         76.61047       32.82921        3.70570
C         75.55117       33.90179        3.66592
O         74.96672       34.19589        4.69675
C         77.86719       33.26515        4.48544
C         78.51893       34.48672        3.88829
O         79.65708       34.42391        3.45225
O         77.86254       35.66322        3.85599
H         75.86188       31.69531        5.35890
H         76.92542       32.60084        2.66285
H         78.59330       32.42210        4.47360
H         77.61025       33.48458        5.54436
N         75.22962       34.51743        2.49331
C         74.12170       35.46233        2.39413
C         72.79598       34.69031        2.50789
O         72.85328       33.46782        2.46597
C         74.23454       36.22002        1.06581
H         75.78451       34.29958        1.65095
H         74.24500       36.20241        3.20823
H         73.48611       37.01947        0.96158
H         75.22765       36.71670        1.01709
H         74.14101       35.52144        0.20857
N         71.55586       35.25475        2.65350
C         71.24715       36.67911        2.75614
C         71.91066       37.33399        3.95540
O         72.47694       36.64542        4.79440
C         69.71014       36.89428        2.79440
C         68.99892       36.27388        3.97657
O         67.78609       36.37779        4.06444
O         69.67000       35.60315        4.93341
H         70.76084       34.59608        2.69061
H         71.60055       37.17944        1.84055
H         69.27702       36.45851        1.86736
H         69.48527       37.98161        2.78767
N         71.86442       38.68822        4.10271
C         72.47352       39.36735        5.23140
C         73.98651       39.30419        5.20799
O         74.54928       38.82590        4.23253
H         71.35952       39.25725        3.40683
H         72.07879       38.91628        6.15178
H         72.19148       40.44236        5.21358
N         74.74760       39.80866        6.22185
C         74.22877       40.33336        7.48336
C         74.83419       39.61201        8.68982
O         74.65643       40.09758        9.79652
C         74.39934       41.86786        7.54911
C         75.80298       42.38170        7.36164
N         76.07081       43.28644        6.38867
O         76.69531       42.01147        8.10893
H         75.77305       39.81056        6.09732
H         73.13543       40.19039        7.57791
H         74.01698       42.22910        8.52833
H         73.74495       42.31308        6.76782
H         75.32471       43.63199        5.76592
H         77.02141       43.66468        6.26828
N         75.51572       38.43096        8.57464
C         76.12065       37.73329        9.70598
C         75.16180       37.25550       10.79708
O         75.66209       36.78259       11.80680
H         75.65387       38.01617        7.64446
H         76.85702       38.42389       10.17128
H         76.68174       36.84711        9.33507
N         73.80236       37.36334       10.69942
C         72.87665       37.06470       11.80199
C         71.87519       35.96813       11.43585
O         71.98896       35.38112       10.36995
C         72.17543       38.38016       12.23117
C         73.18195       39.36745       12.82864
O         71.52331       38.98142       11.14316
H         73.39661       37.72929        9.83049
H         73.42137       36.68270       12.69335
H         71.44801       38.19844       13.05119
H         70.64186       38.53427       11.05218
H         73.96918       39.63750       12.10164
H         72.66062       40.29466       13.14506
H         73.67209       38.91809       13.71929
N         70.87273       35.62816       12.31108
C         69.94505       34.51572       12.11647
C         68.53175       35.03941       11.84725
O         67.97074       35.73250       12.68286
C         69.96623       33.58433       13.37423
C         68.98120       32.39168       13.21814
C         71.39779       33.07845       13.64642
C         68.81043       31.55156       14.48507
H         70.76949       36.15966       13.18563
H         70.26895       33.91590       11.24758
H         69.63948       34.18985       14.24914
H         69.31367       31.72854       12.39537
H         67.97005       32.77697       12.97405
H         72.09736       33.92786       13.79003
H         71.44393       32.47918       14.57742
H         71.76026       32.45739       12.79929
H         69.75417       31.05349       14.78189
H         68.44678       32.18808       15.31949
H         68.05759       30.75645       14.29593
N         67.89407       34.69192       10.68938
C         66.54111       35.05933       10.29875
C         65.64228       33.82675       10.12154
O         64.49505       34.01095        9.73664
C         66.60649       35.80683        8.95313
C         67.52604       36.98895        9.01106
O         67.29359       37.99652        9.87252
O         68.49404       37.03673        8.27278
H         68.39667       34.13359       10.00820
H         66.08084       35.72164       11.06426
H         65.59371       36.15682        8.66063
H         66.97094       35.10535        8.16690
N         66.06493       32.55453       10.40537
C         65.21187       31.37250       10.30412
C         65.89833       30.24806        9.50891
O         66.14069       29.19183       10.07839
C         64.82086       30.97917       11.75070
C         63.88479       29.79550       11.87875
C         62.66630       29.74539       11.17562
C         64.21359       28.73822       12.74717
C         61.80431       28.65443       11.33222
C         63.34157       27.65784       12.91132
C         62.13946       27.61416       12.20222
H         66.99794       32.41065       10.80590
H         64.26257       31.61595        9.78474
H         64.29737       31.85400       12.19486
H         65.74257       30.80659       12.35016
H         62.37836       30.54359       10.50521
H         65.13620       28.75705       13.31397
H         60.87171       28.61838       10.78390
H         63.59605       26.85638       13.59305
H         61.46591       26.77643       12.33052
N         66.20135       30.36475        8.17185
C         66.72167       29.27129        7.34254
C         68.06593       28.68822        7.75738
O         68.46024       27.66536        7.21549
C         66.89866       29.92132        5.96391
C         65.79325       30.95006        5.95359
C         65.88658       31.52555        7.36503
H         65.94313       28.47574        7.33797
H         67.85304       30.50088        5.95073
H         66.91080       29.20915        5.11119
H         65.85875       31.70674        5.14304
H         64.83027       30.39891        5.85817
H         66.71997       32.25633        7.46270
H         64.91475       31.99889        7.61343
N         68.86116       29.34428        8.64051
C         70.18560       28.88995        9.04156
C         70.01503       27.64574        9.87923
O         70.56102       26.60734        9.53489
C         71.01243       29.95076        9.83805
C         71.26040       31.29023        9.08835
C         70.10438       32.24455        9.18617
O         70.08771       33.42591        8.54284
O         69.19398       32.00625        9.95257
H         68.49262       30.20707        9.00672
H         70.78287       28.67410        8.12653
H         72.01034       29.48831       10.00173
H         70.59015       30.15335       10.84666
H         71.51911       31.07947        8.02919
H         72.11649       31.82294        9.55550
N         69.21745       27.68691       10.98543
C         68.94347       26.54235       11.82667
H         67.85350       26.32875       11.80294
H         69.48770       25.63434       11.49478
H         69.23901       26.77549       12.87045
H         68.75018       28.57276       11.23426
Ca        71.70913       34.40458        7.38140
O         74.40507       35.74230        7.27457
H         75.17119       36.00294        6.70720
H         73.95328       35.04958        6.73825
O         71.49117       33.16236        4.91961
H         72.38599       32.79969        5.14016
H         70.86349       32.41963        5.09838
O         71.35573       37.50440        8.10952
H         70.68608       37.75718        7.42678
H         71.55542       38.35537        8.57218

Ca 1.0



