%chk=apoCaM-CA-Ng.loop4.water7.frame717.chk
%nprocshared=20
%mem=10GB
%nosave
#b3lyp/svp scf=(tight,noincore,xqc) Test 
#IOP(5/87=12) Density=Current Pop=(MK,readradii) iop(6/33=2) iop(6/42=6)

apoCaM-CA-Ng.loop4.water7.frame717 

   -3  1 
C         86.01530       82.52843       -4.78397
C         86.97572       81.40164       -5.01164
O         86.53567       80.34729       -5.44326
H         85.23620       82.20432       -4.06531
H         86.52693       83.42627       -4.38082
H         85.52630       82.79556       -5.74496
N         88.31311       81.55656       -4.77723
C         89.29660       80.50296       -5.00508
C         89.19488       80.00335       -6.43162
O         88.87351       78.83972       -6.64044
C         89.16089       79.35718       -3.97095
C         89.49362       79.81276       -2.57671
O         88.61195       79.64436       -1.57670
O         90.58870       80.29454       -2.33364
H         88.65956       82.47344       -4.45746
H         90.32129       80.91829       -4.87774
H         89.89350       78.56015       -4.22653
H         88.14426       78.90931       -4.00010
N         89.48583       80.83806       -7.47182
C         89.42092       80.39721       -8.86328
C         90.83819       80.13120       -9.37010
O         91.77156       80.60370       -8.73483
C         88.62712       81.41105       -9.74905
C         89.42240       82.72499       -9.98436
C         87.23721       81.68073       -9.14125
C         88.76113       83.67060      -10.98898
H         89.82603       81.78819       -7.26044
H         88.87161       79.44104       -8.88415
H         88.46545       80.94761      -10.73996
H         90.41459       82.47134      -10.41488
H         89.58737       83.26549       -9.02911
H         87.32610       82.19948       -8.16265
H         86.61961       82.30891       -9.81431
H         86.69230       80.72574       -8.98936
H         88.60604       83.15265      -11.95987
H         87.79141       84.05173      -10.61269
H         89.42502       84.54433      -11.16136
N         91.13416       79.37357      -10.46876
C         90.17913       78.63990      -11.29302
C         89.40787       77.61872      -10.48941
O         88.20242       77.51954      -10.67368
C         90.86606       77.92351      -12.48155
C         91.79195       76.79633      -12.09312
O         92.89257       77.03006      -11.35431
O         91.54989       75.65759      -12.46140
H         92.13243       79.29405      -10.71315
H         89.47443       79.35057      -11.76713
H         91.42704       78.66616      -13.08683
H         90.06240       77.50316      -13.12940
N         90.03067       76.83409       -9.56174
C         89.32791       75.77310       -8.87765
C         89.15889       74.63454       -9.84266
O         90.14298       73.97077      -10.13809
H         91.02588       76.98392       -9.34028
H         88.36282       76.15935       -8.48078
H         89.91740       75.39930       -8.01174
N         87.95423       74.38247      -10.41775
C         87.73549       73.28811      -11.35510
C         87.41553       73.76067      -12.76901
O         87.25265       72.89871      -13.62156
C         86.67353       72.32506      -10.77134
C         85.41434       72.98908      -10.26966
O         84.67113       73.58749      -11.02434
O         85.09889       72.91371       -8.96235
H         87.15904       74.99764      -10.18587
H         88.66191       72.68594      -11.48285
H         87.13806       71.82400       -9.89537
H         86.42033       71.53561      -11.51158
N         87.35327       75.07965      -13.13125
C         87.07481       75.49428      -14.50481
C         85.67735       75.12189      -14.97414
O         85.36812       75.34505      -16.13507
H         87.53038       75.81648      -12.43667
H         87.82962       75.03233      -15.17696
H         87.17281       76.59927      -14.58977
N         84.76870       74.59015      -14.11043
C         83.39142       74.24533      -14.41721
C         82.60850       75.47376      -14.83476
O         81.70150       75.37342      -15.64985
C         83.28660       73.04245      -15.37911
C         84.01416       71.81291      -14.79842
C         83.89967       70.57415      -15.65068
N         84.50017       69.42981      -15.24835
O         83.27015       70.59005      -16.69851
H         85.03396       74.46828      -13.13385
H         82.92325       73.92362      -13.45841
H         83.71675       73.30156      -16.37007
H         82.21242       72.78656      -15.51323
H         83.59386       71.57932      -13.79572
H         85.09168       72.04636      -14.68435
H         85.03548       69.39915      -14.36759
H         84.43161       68.57221      -15.81592
N         82.89038       76.67349      -14.24799
C         82.11097       77.88845      -14.44484
C         81.55651       78.41063      -13.12173
O         80.69516       79.27651      -13.16550
C         82.94625       78.98618      -15.15751
C         84.21134       79.37202      -14.36945
C         83.33025       78.54402      -16.57442
H         83.70209       76.72087      -13.61856
H         81.22621       77.65964      -15.08005
H         82.31123       79.89474      -15.25537
H         84.74393       80.20017      -14.88201
H         83.94373       79.71767      -13.35230
H         84.91449       78.51695      -14.28292
H         82.41626       78.31597      -17.16297
H         83.88090       79.35792      -17.09213
H         83.97439       77.64082      -16.54838
N         82.01092       77.95850      -11.91252
C         81.47720       78.39550      -10.63357
C         80.99176       77.18375       -9.85109
O         81.11059       76.05843      -10.31254
C         82.56243       79.16899       -9.84927
C         82.95349       80.45230      -10.53814
N         84.23652       80.68263      -10.90102
O         82.10339       81.30391      -10.75232
H         82.77541       77.27672      -11.85654
H         80.60252       79.06751      -10.77293
H         83.45505       78.52245       -9.70932
H         82.18233       79.45153       -8.84514
H         84.97165       79.98344      -10.72312
H         84.49743       81.56752      -11.36111
N         80.39426       77.37259       -8.64498
C         79.84244       76.28833       -7.82961
C         79.03680       76.85156       -6.66660
O         79.07641       78.04962       -6.43257
C         80.93488       75.31975       -7.29907
C         81.95664       75.99933       -6.41116
C         82.90340       76.88196       -6.95625
C         81.98093       75.74690       -5.02877
C         83.84507       77.51174       -6.14149
C         82.92316       76.37889       -4.21222
C         83.85491       77.26158       -4.76413
O         84.75617       77.85599       -3.96218
H         80.28768       78.34776       -8.33833
H         79.12646       75.72305       -8.46539
H         81.46661       74.80627       -8.12746
H         80.41939       74.51960       -6.72502
H         82.92551       77.07317       -8.01352
H         81.26639       75.06975       -4.57879
H         84.56684       78.18862       -6.58330
H         82.93046       76.18418       -3.14768
H         85.41940       78.47036       -4.30093
N         78.23949       76.03848       -5.91189
C         77.43220       76.56243       -4.81958
C         77.75185       75.81521       -3.53542
O         77.26934       74.70191       -3.38286
C         75.94084       76.47672       -5.19436
C         75.04143       77.16410       -4.15719
C         73.60009       77.09685       -4.57075
O         72.70050       76.47966       -3.78169
O         73.23411       77.60897       -5.61711
H         78.17246       75.03596       -6.14213
H         77.63457       77.63281       -4.69008
H         75.64001       75.41316       -5.32186
H         75.80259       76.99170       -6.17164
H         75.33462       78.23219       -4.05681
H         75.16157       76.67118       -3.16914
N         78.59250       76.29630       -2.57081
C         79.38500       77.51784       -2.67511
C         78.53512       78.77455       -2.65452
O         77.76623       78.97072       -1.72329
C         80.41359       77.58962       -1.52623
C         81.38037       78.76205       -1.74729
C         82.42762       78.85468       -0.68816
O         83.18936       77.92230       -0.48615
O         82.59088       80.01628       -0.02861
H         78.74993       75.69133       -1.74833
H         79.97387       77.45904       -3.61797
H         81.00521       76.64714       -1.51866
H         79.89710       77.68591       -0.54543
H         80.82683       79.72460       -1.77555
H         81.89310       78.63000       -2.72373
N         78.68172       79.70522       -3.63794
C         77.95563       80.95361       -3.64264
H         76.86411       80.75987       -3.68647
H         78.20068       81.53359       -2.72740
H         78.25105       81.55515       -4.52924
H         79.35649       79.53775       -4.39852
Ca        84.47689       80.43201        1.12591
O         85.71523       79.18972       -1.52332
H         86.18618       80.00057       -1.83136
H         84.80340       79.31679       -1.87923
O         83.64932       82.06169       -1.87317
H         84.46790       82.60578       -1.75520
H         82.90502       82.70265       -1.75008
O         83.14016       81.56857        3.45983
H         83.01794       80.63057        3.75281
H         83.91112       81.89542        3.98811
O         84.87794       83.57222        1.30461
H         84.66760       83.83386        2.23598
H         84.74502       84.39951        0.77724
O         85.36115       77.71167        1.88778
H         85.65369       77.37744        2.77201
H         84.38347       77.83579        1.98391
O         86.84009       80.89045        2.71472
H         87.45037       81.64379        2.91318
H         87.22863       80.11588        3.19324
O         87.03656       82.07908       -0.46488
H         87.46606       82.75692        0.11416
H         87.43645       82.22454       -1.35922

Ca 1.0



