%chk=apoCaM-CA-Ng.loop1.water1.frame844.chk
%nprocshared=20
%mem=10GB
%nosave
#b3lyp/svp scf=(tight,noincore,xqc) Test 
#IOP(5/87=12) Density=Current Pop=(MK,readradii) iop(6/33=2) iop(6/42=6)

apoCaM-CA-Ng.loop1.water1.frame844 

   0  1 
C         51.56661       15.80997       95.43893
C         50.40043       15.95960       94.50923
O         49.28145       16.04089       94.99618
H         52.52605       15.75271       94.88506
H         51.60092       16.67745       96.13058
H         51.44345       14.87938       96.03336
N         50.57980       15.97904       93.15469
C         49.46942       16.06483       92.21127
C         49.21400       14.71642       91.53663
O         50.04769       13.82666       91.61082
C         49.51846       17.34850       91.32721
C         50.81241       17.87766       90.72575
O         51.99592       17.24829       90.80803
O         50.78571       18.97067       90.18360
H         51.53409       15.87146       92.78293
H         48.52800       16.19053       92.79026
H         49.22124       18.17331       92.01065
H         48.73730       17.27930       90.53986
N         47.95139       14.44305       91.08645
C         47.43597       13.09444       90.81479
C         47.87205       12.56948       89.45165
O         47.13566       12.72217       88.48753
C         45.88672       13.09410       90.96872
C         45.46274       13.38613       92.42913
C         43.94630       13.57932       92.62209
C         43.05840       12.39424       92.20445
N         43.35231       11.17816       92.96282
H         47.26718       15.21404       91.13528
H         47.79918       12.38370       91.59152
H         45.48422       12.09808       90.68468
H         45.45200       13.85812       90.28652
H         45.93766       14.32652       92.78010
H         45.83008       12.57026       93.08780
H         43.62773       14.47067       92.03931
H         43.75964       13.79953       93.69703
H         43.16495       12.19675       91.11665
H         41.99901       12.68328       92.38855
H         43.25135       11.35716       93.98835
H         42.67240       10.43459       92.68275
H         44.31674       10.83794       92.75045
N         49.05532       11.89630       89.31916
C         49.59154       11.38337       88.04917
C         50.94141       10.67966       88.29628
O         51.82388       11.29302       88.87678
C         49.76307       12.53133       87.00897
C         50.57323       13.69186       87.51803
O         50.75187       14.67780       86.82102
O         51.06340       13.65020       88.76659
H         49.61924       11.76077       90.17174
H         48.87234       10.66688       87.61015
H         48.76724       12.92892       86.72469
H         50.22425       12.12579       86.08309
N         51.23869        9.41140       87.89601
C         50.38153        8.50744       87.16068
C         49.20662        8.04728       87.97865
O         49.39913        7.56908       89.08787
H         52.19013        9.06541       88.10085
H         50.97382        7.59842       86.91843
H         50.07471        8.96966       86.19715
N         47.95504        8.10976       87.45208
C         46.75624        7.64931       88.13494
C         46.19541        6.46688       87.37077
O         46.01028        6.57259       86.16450
C         45.74312        8.80781       88.19473
C         44.49594        8.48928       88.98210
O         43.62350        9.33551       89.08679
O         44.33110        7.29809       89.59058
H         47.84495        8.47815       86.49370
H         46.98711        7.34320       89.18000
H         45.45576        9.09650       87.15959
H         46.22967        9.68274       88.67798
N         45.89022        5.30173       88.00898
C         45.37412        4.14593       87.30035
C         46.47564        3.26278       86.75129
O         46.15520        2.30133       86.07363
H         45.99354        5.24014       89.03415
H         44.67762        4.47153       86.49730
H         44.78267        3.51911       88.00314
N         47.78607        3.47375       87.08093
C         48.85894        2.55292       86.71649
C         50.05669        3.29831       86.13304
O         50.03573        4.51155       86.02350
C         49.23759        1.70414       87.96521
C         49.64772        2.54295       89.18149
O         48.14416        0.90511       88.33787
H         48.03117        4.24990       87.70763
H         48.51959        1.83963       85.93452
H         50.09608        1.03642       87.72955
H         48.09450        0.15944       87.68322
H         48.79793        3.15353       89.54929
H         49.96029        1.86809       90.00645
H         50.48523        3.22350       88.94182
N         51.15562        2.58085       85.74955
C         52.38748        3.16626       85.21890
C         52.69021        2.54273       83.86707
O         52.89814        3.26626       82.89873
C         53.58624        2.89774       86.18461
C         53.22927        3.30186       87.63450
C         54.83740        3.65345       85.68489
C         54.33703        3.02943       88.65272
H         51.12492        1.56490       85.87820
H         52.28252        4.26893       85.11658
H         53.81088        1.80792       86.19477
H         52.36933        2.68257       87.95081
H         52.94089        4.37435       87.68198
H         55.10037        3.35173       84.65019
H         54.65847        4.75057       85.69936
H         55.72382        3.42693       86.30958
H         53.96057        3.26008       89.67165
H         54.63736        1.96041       88.61993
H         55.22132        3.67172       88.46968
N         52.72738        1.18753       83.74223
C         53.07770        0.46028       82.53440
C         54.10128       -0.60456       82.89801
O         54.01327       -1.16867       83.98493
C         51.81607       -0.19211       81.92135
C         50.76167        0.86386       81.56767
O         52.15509       -0.87635       80.74123
H         52.47388        0.61261       84.55957
H         53.49947        1.14595       81.76364
H         51.34813       -0.89342       82.65254
H         52.43299       -1.79290       81.00097
H         51.17527        1.59871       80.84308
H         49.87522        0.37686       81.10947
H         50.42302        1.40678       82.47525
N         55.04880       -0.99748       82.00959
C         56.02239       -2.04621       82.29520
C         57.42923       -1.55234       82.02011
O         58.26121       -1.61968       82.91247
C         55.67410       -3.32380       81.49750
C         56.66078       -4.46432       81.78331
O         55.63977       -3.05969       80.11930
H         55.04297       -0.56556       81.07196
H         55.97478       -2.34779       83.36796
H         54.66194       -3.64391       81.84591
H         54.97715       -3.68482       79.72373
H         56.34071       -5.38403       81.25077
H         57.68235       -4.19798       81.43728
H         56.69672       -4.68347       82.87230
N         57.76387       -1.04919       80.79697
C         59.11443       -0.65119       80.43579
C         59.17271        0.84986       80.21978
O         58.29076        1.40247       79.57709
C         59.52859       -1.36983       79.13437
C         61.03284       -1.17239       78.86204
C         61.49344       -1.59624       77.46420
C         60.96395       -0.63618       76.38186
N         61.55808       -0.92963       75.08010
H         57.03459       -0.95033       80.07709
H         59.83594       -0.94231       81.23111
H         58.89980       -0.97111       78.31134
H         59.33740       -2.46305       79.21063
H         61.59318       -1.74981       79.63030
H         61.31572       -0.11173       78.96971
H         61.20598       -2.64830       77.25077
H         62.60344       -1.52859       77.45781
H         61.22800        0.41004       76.65977
H         59.85862       -0.70476       76.30466
H         61.31268       -1.90064       74.78192
H         61.18827       -0.24885       74.37759
H         62.59780       -0.82360       75.13118
N         60.26049        1.55292       80.64190
C         60.43811        2.97176       80.36547
C         59.48727        3.80924       81.21376
O         58.67906        4.50908       80.61976
C         61.92557        3.37775       80.49731
C         62.77479        2.71716       79.39121
C         64.24334        3.01719       79.50458
O         65.01328        2.55654       78.67689
O         64.72862        3.76709       80.51329
H         61.02677        1.03711       81.10073
H         60.18770        3.16428       79.29556
H         62.33055        3.07693       81.47897
H         62.01960        4.48036       80.38728
H         62.41561        3.07223       78.39962
H         62.66408        1.61720       79.43323
N         59.45700        3.81023       82.57970
C         60.32410        3.03393       83.43908
H         61.37244        3.36706       83.34285
H         60.03865        3.19845       84.49952
H         60.22489        1.95134       83.22333
H         58.74901        4.39895       83.04600
Ca        52.04503       15.26061       89.88791
O         52.51830       12.40535       92.54106
H         52.84977       12.17456       93.44502
H         51.77375       11.77225       92.38094

Ca 1.0



