%chk=apoCaM-CA-Ng.loop3.water4.frame203.chk
%nprocshared=20
%mem=10GB
%nosave
#b3lyp/svp scf=(tight,noincore,xqc) Test 
#IOP(5/87=12) Density=Current Pop=(MK,readradii) iop(6/33=2) iop(6/42=6)

apoCaM-CA-Ng.loop3.water4.frame203 

   0  1 
C         26.97148       40.02605       19.43062
C         27.68772       40.34073       18.15210
O         28.30756       41.38869       18.05039
H         25.88695       39.89800       19.22689
H         27.37320       39.08268       19.85667
H         27.10373       40.84216       20.17148
N         27.62804       39.45764       17.11840
C         28.26288       39.64571       15.81896
C         27.72845       40.89325       15.13622
O         28.51271       41.69489       14.64440
C         29.80920       39.68341       15.93506
C         30.41651       38.46825       16.58137
O         31.62659       38.41608       16.73146
O         29.65492       37.43889       16.99989
H         27.07917       38.59318       17.24995
H         27.98172       38.77698       15.18149
H         30.11446       40.57385       16.52405
H         30.24609       39.78177       14.91698
N         26.38722       41.13426       15.09146
C         25.82028       42.30598       14.43778
C         25.24961       43.23318       15.49459
O         24.08523       43.60353       15.44199
C         24.83569       41.80508       13.36110
C         24.26316       42.89377       12.44415
C         23.51128       42.23561       11.27381
C         22.82834       43.23768       10.33091
N         23.77614       44.16307        9.70809
H         25.74195       40.47565       15.55584
H         26.61604       42.88580       13.92230
H         24.00461       41.23501       13.83457
H         25.41289       41.10087       12.72151
H         25.10245       43.49863       12.04263
H         23.57615       43.55538       13.01152
H         22.72309       41.56300       11.67799
H         24.22498       41.61518       10.68666
H         22.05632       43.81114       10.88846
H         22.31507       42.65633        9.53217
H         23.26143       44.76019        9.02148
H         24.20158       44.79161       10.42581
H         24.52392       43.63417        9.20332
N         26.05544       43.63265       16.52253
C         25.60133       44.50534       17.59673
C         25.58692       45.96241       17.13279
O         26.14081       46.27307       16.08682
C         26.51417       44.30243       18.82669
C         26.04056       45.03832       20.03884
O         24.83740       44.75944       20.57721
O         26.74905       45.88857       20.54604
H         27.01079       43.24713       16.57250
H         24.57469       44.18446       17.88479
H         27.55163       44.61413       18.57205
H         26.53465       43.22333       19.09233
N         24.92623       46.90616       17.85898
C         24.82194       48.30659       17.47726
C         26.12980       49.05633       17.59422
O         26.55849       49.64074       16.60946
H         24.40604       46.60386       18.69273
H         24.10339       48.81175       18.15323
H         24.40844       48.38214       16.44748
N         26.81218       49.09771       18.77775
C         28.05442       49.85182       18.95954
C         29.28002       48.95467       18.92209
O         30.37868       49.45450       19.12651
C         28.01756       50.70035       20.25617
C         28.04963       49.92603       21.55827
N         28.13417       50.59865       22.72935
O         28.02719       48.70399       21.56823
H         26.45378       48.54031       19.56709
H         28.18205       50.57408       18.12314
H         27.12443       51.36177       20.24476
H         28.91748       51.35445       20.25250
H         28.17872       51.62815       22.74431
H         28.17449       50.09145       23.62384
N         29.18437       47.63404       18.60587
C         30.33867       46.76855       18.50509
C         30.91761       46.43901       19.85729
O         32.09817       46.66793       20.07584
H         28.27204       47.22368       18.36181
H         31.09484       47.22007       17.82463
H         30.01966       45.80595       18.05183
N         30.13939       45.81267       20.78602
C         30.64925       45.23846       22.02355
C         29.98655       45.82760       23.24700
O         28.76894       45.79388       23.35101
C         30.41193       43.71777       22.03467
C         31.24264       43.02592       20.98552
C         32.36710       42.28596       21.38133
C         30.92735       43.11916       19.61850
C         33.17456       41.66453       20.42950
C         31.73450       42.49088       18.66612
C         32.86483       41.76477       19.07019
O         33.65986       41.16149       18.16496
H         29.14961       45.65252       20.56168
H         31.74648       45.39899       22.11031
H         29.33562       43.45750       21.91887
H         30.72838       43.35403       23.03768
H         32.63086       42.20556       22.42883
H         30.05856       43.67161       19.28651
H         34.04555       41.10968       20.75262
H         31.48280       42.57233       17.61630
H         33.48529       41.20970       17.21475
N         30.76402       46.32763       24.25148
C         30.24459       46.84932       25.50650
C         30.52749       48.33308       25.52425
O         29.57374       49.09390       25.53450
C         30.83096       46.06615       26.71921
C         30.48267       44.55131       26.66217
C         30.37507       46.65188       28.06938
C         28.99396       44.21454       26.84560
H         31.78736       46.33740       24.12560
H         29.15376       46.72465       25.55210
H         31.93936       46.14982       26.67423
H         31.04164       44.02904       27.46909
H         30.82771       44.12794       25.69531
H         29.27079       46.65249       28.16716
H         30.82011       46.07539       28.90849
H         30.70184       47.69232       28.18174
H         28.85492       43.11523       26.78792
H         28.62963       44.53469       27.84398
H         28.36632       44.68171       26.06147
N         31.79519       48.83070       25.44224
C         32.04309       50.26384       25.30225
C         31.63165       51.06203       26.53297
O         31.42296       52.25834       26.39798
C         33.51363       50.54279       24.95165
O         33.89057       49.84139       23.79576
H         32.58794       48.17211       25.39553
H         31.42630       50.61708       24.44424
H         34.16610       50.21395       25.78850
H         33.68780       51.63195       24.80000
H         33.39113       50.24489       23.03824
N         31.49755       50.47078       27.75849
C         31.06950       51.15552       28.97904
C         29.62654       51.65806       28.91937
O         29.22260       52.35061       29.84682
C         32.05598       52.27587       29.34362
H         31.74549       49.48172       27.84949
H         31.11169       50.42871       29.82106
H         31.78592       52.71540       30.32787
H         33.08145       51.85681       29.42999
H         32.06231       53.09235       28.59551
N         28.77328       51.31999       27.90748
C         27.40029       51.80183       27.80086
C         26.39217       50.67162       27.90638
O         26.78364       49.51110       27.93437
C         27.23683       52.51004       26.45189
H         29.09770       50.68555       27.17237
H         27.17964       52.51913       28.62030
H         27.96143       53.34716       26.37265
H         27.43473       51.79534       25.62111
H         26.21104       52.91414       26.32999
N         25.05647       50.95812       28.00272
C         23.97584       49.97025       28.05542
C         24.05987       49.01382       29.24538
O         23.22246       48.12336       29.32003
C         23.91364       49.17769       26.73612
C         23.65760       50.07961       25.51525
C         23.75407       49.24366       24.28206
O         24.92702       48.64229       24.03461
O         22.79649       49.07623       23.54437
H         24.77373       51.95052       28.01920
H         23.00560       50.50742       28.14860
H         23.08655       48.43309       26.77908
H         24.85898       48.61390       26.61217
H         24.42790       50.87658       25.44299
H         22.65514       50.55335       25.59839
N         25.00750       49.12015       30.22013
C         25.09284       48.16725       31.30532
H         25.92802       48.44047       31.98425
H         24.14558       48.15978       31.88429
H         25.28769       47.15142       30.89812
H         25.69170       49.88674       30.21434
Ca        25.37177       47.01281       22.57393
O         26.14868       44.15394       23.89633
H         25.36039       43.62781       24.18300
H         26.92183       43.56203       24.07637
O         23.04412       45.60309       23.38619
H         22.67743       46.04328       24.19357
H         22.40488       44.87719       23.17846
O         23.86721       48.18085       20.54903
H         23.88524       48.99433       21.11040
H         23.24799       47.55827       21.00586
O         26.97676       47.49770       25.14201
H         27.03473       48.23166       25.80000
H         27.40741       47.87277       24.33283

Ca 1.0



