%chk=apoCaM-CA-Ng.loop2.water2.frame862.chk
%nprocshared=20
%mem=10GB
%nosave
#b3lyp/svp scf=(tight,noincore,xqc) Test 
#IOP(5/87=12) Density=Current Pop=(MK,readradii) iop(6/33=2) iop(6/42=6)

apoCaM-CA-Ng.loop2.water2.frame862 

   -2  1 
C         75.42049       42.67179       81.16537
C         75.58435       42.12119       79.77978
O         76.35963       41.19517       79.58957
H         74.36206       42.55976       81.48395
H         76.06758       42.12964       81.88727
H         75.69068       43.74818       81.17600
N         74.85310       42.64455       78.75809
C         74.90226       42.15671       77.38486
C         73.55756       41.53780       76.98413
O         73.40941       41.13936       75.83753
C         75.31623       43.33040       76.47369
C         75.57416       42.90044       75.05577
O         76.52986       41.98856       74.79023
O         74.93214       43.38593       74.13851
H         74.20447       43.42030       78.96862
H         75.67299       41.36076       77.28233
H         76.26359       43.76716       76.85924
H         74.53353       44.12023       76.50452
N         72.55841       41.36043       77.90159
C         71.28164       40.71140       77.62898
C         70.14303       41.59770       78.13437
O         70.24472       42.03605       79.27253
C         71.25004       39.38346       78.39035
H         72.71802       41.63585       78.88049
H         71.19156       40.44789       76.56127
H         70.29231       38.85479       78.20022
H         72.08160       38.73254       78.04364
H         71.36111       39.54562       79.48394
N         68.99421       41.88326       77.44807
C         68.59625       41.35775       76.14617
C         67.93904       42.43790       75.29245
O         67.68590       43.53288       75.77559
C         67.69713       40.10782       76.33533
C         66.50929       40.30793       77.25212
O         66.67605       40.60878       78.42305
O         65.25877       40.10034       76.80165
H         68.28750       42.43715       77.95719
H         69.48224       41.04269       75.56769
H         68.31506       39.30082       76.78327
H         67.35368       39.74670       75.34191
N         67.71992       42.20881       73.96642
C         67.23909       43.22588       73.04309
C         66.27738       42.63224       72.04364
O         66.67269       42.49428       70.89404
H         68.03397       41.31036       73.56640
H         68.12953       43.56553       72.46766
H         66.81616       44.11945       73.54737
N         65.01976       42.20930       72.34737
C         64.33283       42.37232       73.62471
C         63.79678       43.80053       73.74661
O         63.19830       44.27459       72.79017
C         63.13981       41.38507       73.64546
C         62.43295       41.28251       74.96909
N         61.34945       40.48435       75.09112
O         62.83973       41.89796       75.93821
H         64.50050       41.74194       71.58541
H         65.00360       42.08087       74.46321
H         63.51286       40.36460       73.40997
H         62.40556       41.67768       72.86309
H         60.99689       39.95113       74.28428
H         60.85585       40.40118       75.98922
N         63.91266       44.52116       74.90183
C         63.40325       45.88480       75.05372
C         62.27421       46.02561       76.06928
O         61.85351       47.15001       76.30050
H         64.37388       44.08806       75.71363
H         63.02281       46.28626       74.09024
H         64.24976       46.52969       75.37129
N         61.71811       44.95037       76.69576
C         60.63867       45.02312       77.68102
C         61.11412       44.44640       79.01192
O         62.26190       44.03502       79.11866
C         59.38605       44.27086       77.14527
C         58.76130       44.99032       75.94867
O         59.71406       42.96075       76.76450
H         62.06708       44.01736       76.46929
H         60.34249       46.07620       77.88211
H         58.57948       44.24880       77.91330
H         59.70275       42.41463       77.58996
H         57.86015       44.43566       75.60690
H         58.44215       46.01302       76.24506
H         59.47703       45.06133       75.10412
N         60.26455       44.38756       80.07786
C         60.62664       43.85821       81.38977
C         59.88378       42.54943       81.57109
O         58.66189       42.54450       81.50017
C         60.28789       44.91199       82.48415
C         60.45645       44.38810       83.93503
C         61.10506       46.19918       82.26118
C         61.86734       43.92717       84.30542
H         59.29393       44.71381       79.95599
H         61.71609       43.64394       81.43720
H         59.21284       45.18411       82.38164
H         59.76063       43.53717       84.09766
H         60.15449       45.19434       84.63984
H         60.89491       46.62889       81.25888
H         60.83460       46.96571       83.01801
H         62.19495       45.99950       82.32399
H         61.86883       43.58142       85.36069
H         62.18517       43.08008       83.66663
H         62.59828       44.75564       84.21625
N         60.57851       41.38408       81.74434
C         59.95487       40.06443       81.71733
C         60.07880       39.30213       83.02658
O         59.37792       38.31036       83.17402
C         60.53566       39.27157       80.52852
C         60.21368       39.99281       79.24961
O         59.04318       40.18528       78.95962
O         61.16398       40.47450       78.42269
H         61.60319       41.42599       81.81865
H         58.85807       40.17776       81.56503
H         60.08274       38.25849       80.48068
H         61.63637       39.16573       80.64514
N         60.89108       39.71190       84.04147
C         60.80177       39.15749       85.39178
C         61.98351       39.64343       86.23538
O         62.19526       40.84716       86.29751
C         59.46666       39.65020       86.01066
C         59.42006       39.58192       87.52124
C         59.57453       40.77895       88.24421
C         59.25251       38.37566       88.22206
C         59.57616       40.77495       89.63625
C         59.24198       38.37828       89.62473
C         59.40834       39.57631       90.32876
H         61.53244       40.50078       83.88193
H         60.81636       38.05201       85.34606
H         58.58443       39.14726       85.55740
H         59.38180       40.72258       85.72978
H         59.71658       41.71979       87.72622
H         59.12485       37.44097       87.69096
H         59.71186       41.70484       90.17304
H         59.10872       37.45336       90.17039
H         59.40859       39.58028       91.41074
N         62.77684       38.78087       86.95575
C         63.85815       39.21152       87.83663
C         65.03686       39.89878       87.16568
O         65.97189       40.23739       87.87950
C         64.34376       37.90774       88.48489
C         63.07555       37.09161       88.52712
C         62.50939       37.36561       87.13957
H         63.41308       39.88014       88.60821
H         65.03372       37.37724       87.78730
H         64.86061       38.04347       89.45928
H         63.21337       36.01595       88.76581
H         62.39796       37.54669       89.28739
H         63.05811       36.79138       86.36096
H         61.43800       37.09057       87.15891
N         65.09422       40.12665       85.81830
C         66.25806       40.73520       85.17742
C         66.58204       42.14046       85.68076
O         67.63526       42.64311       85.31297
C         66.11049       40.75501       83.63677
C         64.96145       41.65265       83.13572
C         64.95804       41.71510       81.63608
O         65.92087       42.17021       81.04025
O         63.89268       41.28344       80.93941
H         64.32218       39.80792       85.22024
H         67.13048       40.08750       85.41944
H         65.95182       39.71767       83.26684
H         67.06800       41.12215       83.20549
H         65.07991       42.68853       83.51858
H         63.98667       41.25950       83.49325
N         65.74541       42.83921       86.50339
C         66.05470       44.16041       87.01207
H         67.04186       44.53186       86.66497
H         65.27365       44.87482       86.67996
H         66.06868       44.12923       88.12179
H         64.84176       42.43984       86.78964
Ca        63.41366       40.35899       78.11879
O         64.44944       38.29604       80.26987
H         65.28310       38.54384       79.79674
H         63.89913       37.84392       79.58187
O         65.37465       43.75437       78.32862
H         66.20056       43.82585       78.86931
H         65.65848       43.27284       77.51239

Ca 1.0



