%chk=apoCaM-CA-Ng.loop3.water6.frame382.chk
%nprocshared=20
%mem=10GB
%nosave
#b3lyp/svp scf=(tight,noincore,xqc) Test 
#IOP(5/87=12) Density=Current Pop=(MK,readradii) iop(6/33=2) iop(6/42=6)

apoCaM-CA-Ng.loop3.water6.frame382 

   0  1 
C         38.22263      114.45397        6.95722
C         39.41117      114.37135        6.04897
O         40.50425      114.11653        6.52632
H         37.45776      113.71444        6.64296
H         38.51523      114.24601        8.00910
H         37.79071      115.47572        6.90377
N         39.26423      114.59979        4.71178
C         40.34015      114.56740        3.71799
C         41.33964      115.71561        3.85919
O         42.20736      115.82424        3.00360
C         41.05779      113.19188        3.69397
C         40.13621      112.02625        3.43079
O         38.93874      112.18718        3.25156
O         40.64671      110.78139        3.38542
H         38.31412      114.79627        4.36105
H         39.87072      114.71620        2.71965
H         41.58474      113.01218        4.65356
H         41.82656      113.19540        2.89159
N         41.28751      116.61283        4.88663
C         42.19827      117.74392        5.03427
C         43.23642      117.45853        6.11789
O         44.13550      118.26482        6.30999
C         41.35743      118.99537        5.37598
C         40.27679      119.26163        4.30918
C         39.26557      120.31915        4.76638
C         38.16611      120.50242        3.70832
N         37.13644      121.43210        4.16977
H         40.58151      116.50948        5.62473
H         42.76186      117.91228        4.09054
H         42.00247      119.89298        5.49395
H         40.85377      118.80262        6.35045
H         39.69433      118.33290        4.12819
H         40.76224      119.56174        3.35545
H         39.77706      121.28690        4.95713
H         38.79226      119.97152        5.71198
H         37.68721      119.52013        3.49334
H         38.61871      120.88334        2.76623
H         36.41434      121.53947        3.42090
H         36.67340      121.05414        5.02859
H         37.55724      122.36654        4.37557
N         43.17657      116.31243        6.85392
C         44.14814      115.90272        7.85540
C         45.45450      115.52929        7.16279
O         45.41177      114.80255        6.17992
C         43.55194      114.69628        8.61927
C         44.30761      114.32210        9.85724
O         43.70326      114.38503       11.05962
O         45.45738      113.93841        9.78576
H         42.38901      115.67390        6.70519
H         44.28315      116.71787        8.60140
H         43.47314      113.82554        7.93689
H         42.52482      114.96964        8.95071
N         46.65456      115.96429        7.63742
C         47.94199      115.63549        7.02924
C         48.16073      114.14053        6.89105
O         48.50400      113.68023        5.81164
H         46.66469      116.53838        8.49411
H         48.74489      116.04657        7.67876
H         48.02823      116.11790        6.03206
N         47.93134      113.32274        7.95057
C         48.05897      111.86544        7.93171
C         47.28060      111.24374        6.77488
O         47.82214      110.36597        6.11771
C         47.54086      111.24505        9.26047
C         48.36132      111.57294       10.52863
N         49.71335      111.03417       10.45759
O         48.41817      112.94310       10.78957
H         47.59682      113.77964        8.80280
H         49.12786      111.57875        7.81483
H         47.54812      110.13687        9.16503
H         46.48363      111.54426        9.42107
H         49.65324      109.99452       10.37424
H         50.18762      111.23933       11.36678
N         46.01296      111.64944        6.47211
C         45.18146      111.02127        5.44272
C         43.86458      110.49143        6.00133
O         43.18215      109.75454        5.30379
H         45.63555      112.44988        6.99364
H         45.72250      110.16539        4.98661
H         44.96374      111.74606        4.63026
N         43.44700      110.83170        7.25069
C         42.28379      110.31830        7.95476
C         42.82445      109.71509        9.22659
O         43.55527      110.39200        9.93587
C         41.32466      111.48062        8.25764
C         40.25958      111.13424        9.27018
C         39.28761      110.15277        9.01591
C         40.25209      111.80470       10.50572
C         38.32565      109.85000        9.98876
C         39.29942      111.49594       11.47478
C         38.33202      110.51594       11.22142
O         37.41305      110.20255       12.15656
H         44.00297      111.49777        7.79622
H         41.73600      109.54886        7.36498
H         40.85717      111.81797        7.31133
H         41.92302      112.32036        8.66211
H         39.27557      109.62186        8.07242
H         40.99433      112.56218       10.72687
H         37.58171      109.08887        9.79089
H         39.31966      112.01746       12.42333
H         37.39946      110.63141       13.02473
N         42.55126      108.43344        9.56634
C         43.27684      107.76154       10.63353
C         44.70654      107.59298       10.14407
O         45.61299      108.05586       10.82142
C         42.53682      106.45323       11.05871
C         41.35561      106.77564       12.02315
C         43.45974      105.47393       11.79962
C         40.32954      107.77549       11.50267
H         41.88694      107.89409        8.98871
H         43.31717      108.39291       11.55084
H         42.16925      105.91906       10.15426
H         41.76348      107.19495       12.97139
H         40.82062      105.83397       12.27250
H         42.89194      104.56758       12.10427
H         44.27049      105.13732       11.13036
H         43.90261      105.94332       12.70354
H         39.53640      107.91622       12.26767
H         40.79513      108.76903       11.33997
H         39.86803      107.40950       10.56381
N         44.98030      107.00827        8.94111
C         46.34432      106.86972        8.43690
C         47.12953      106.00557        9.39304
O         48.18388      106.43827        9.83046
C         46.36233      106.31794        7.00377
O         45.66037      107.17763        6.14380
H         44.19531      106.66562        8.36616
H         46.82357      107.87412        8.38382
H         45.89555      105.31303        6.96062
H         47.41228      106.21701        6.64341
H         46.18458      108.02028        6.08953
N         46.60776      104.81545        9.82281
C         47.07895      103.99196       10.94082
C         48.08581      104.68564       11.85858
O         49.17919      104.18182       12.07419
C         47.54650      102.63697       10.40622
H         45.73807      104.48991        9.37201
H         46.20188      103.80053       11.59763
H         48.41944      102.76724        9.73338
H         47.81902      101.96214       11.24481
H         46.72254      102.15777        9.83264
N         47.74384      105.87965       12.42922
C         48.60239      106.67056       13.30278
C         47.84346      107.02306       14.56586
O         46.75160      107.56722       14.46961
C         49.02503      107.95583       12.58874
H         46.82186      106.27605       12.19354
H         49.53717      106.12070       13.55048
H         49.67494      108.56169       13.25706
H         49.61149      107.70475       11.67992
H         48.14356      108.56373       12.29378
N         48.36787      106.73991       15.79089
C         47.67917      106.97462       17.05600
C         46.42359      106.12472       17.11136
O         45.33301      106.64048       17.32132
C         47.39299      108.47634       17.32511
C         48.66909      109.32794       17.34894
C         48.36975      110.73549       17.78845
O         47.60085      111.43535       17.15114
O         48.94932      111.23131       18.89831
H         49.29931      106.29985       15.83827
H         48.34148      106.61843       17.87637
H         46.90791      108.55226       18.32411
H         46.68703      108.89277       16.57472
H         49.13301      109.34509       16.33914
H         49.39243      108.88477       18.06624
N         46.51939      104.78173       16.91761
C         45.36587      103.91209       16.95628
H         44.62784      104.22484       16.18727
H         45.67641      102.86635       16.74777
H         44.89748      103.95232       17.96231
H         47.44246      104.36205       16.72787
Ca        46.77641      113.41087       12.29964
O         46.85598      111.45774       14.46411
H         46.39751      112.23906       14.86482
H         46.22809      110.70567       14.60335
O         48.46355      114.44589       14.41797
H         48.88973      115.30266       14.16427
H         48.22491      114.55506       15.37235
O         45.39532      110.83034       11.95955
H         44.86108      111.63315       11.73459
H         44.79390      110.28649       12.52661
O         48.05276      115.91836       11.01806
H         48.76601      115.79212       10.34330
H         47.93184      116.89908       11.07168
O         45.24783      116.68266       12.42690
H         44.39920      117.00746       12.82025
H         45.53898      117.41437       11.82727
O         44.60565      114.47993       14.51522
H         43.73673      114.22116       14.91294
H         44.88836      115.27612       15.03171

Ca 1.0



