%chk=apoCaM-CA-Ng.loop3.water5.frame64.chk
%nprocshared=20
%mem=10GB
%nosave
#b3lyp/svp scf=(tight,noincore,xqc) Test 
#IOP(5/87=12) Density=Current Pop=(MK,readradii) iop(6/33=2) iop(6/42=6)

apoCaM-CA-Ng.loop3.water5.frame64 

   0  1 
C         23.12445       47.46372       71.47108
C         21.74636       47.89223       71.06569
O         21.19612       47.32548       70.13493
H         23.82392       48.31965       71.36164
H         23.11776       47.12988       72.52934
H         23.48326       46.62901       70.83125
N         21.13156       48.91401       71.72488
C         19.81387       49.44356       71.38543
C         19.84059       50.04052       69.98719
O         19.06350       49.65767       69.12316
C         18.69601       48.39439       71.59494
C         18.58918       47.91430       73.02071
O         19.43242       48.35390       73.97587
O         17.71146       47.12221       73.32156
H         21.63678       49.36557       72.50299
H         19.58916       50.28928       72.07390
H         18.85165       47.51677       70.93930
H         17.72289       48.85893       71.32491
N         20.73871       51.02914       69.72153
C         20.85147       51.72245       68.43769
C         21.36665       50.81752       67.31578
O         21.41985       51.27666       66.18271
C         21.83702       52.90934       68.58579
C         21.36166       53.96312       69.60566
C         22.46565       54.99117       69.88339
C         22.00292       56.03808       70.90605
N         23.08690       56.96359       71.23433
H         21.35683       51.31480       70.49602
H         19.85005       52.11789       68.15568
H         21.98348       53.42137       67.60897
H         22.81865       52.49485       68.90899
H         21.10797       53.48863       70.57547
H         20.44773       54.46312       69.21707
H         22.76269       55.49812       68.93991
H         23.35057       54.45642       70.29546
H         21.66986       55.53005       71.83896
H         21.14179       56.60569       70.48900
H         23.42066       57.45212       70.37222
H         22.73544       57.67512       71.91513
H         23.88040       56.44217       71.67407
N         21.82732       49.55500       67.55644
C         22.45855       48.71725       66.53513
C         21.46673       48.32591       65.44025
O         20.27002       48.50776       65.62399
C         23.08080       47.48702       67.25251
C         24.02653       46.64683       66.44469
O         23.63396       45.99495       65.49595
O         25.31684       46.55406       66.81839
H         21.81623       49.20669       68.52170
H         23.27976       49.31971       66.08761
H         22.27617       46.84391       67.67119
H         23.67708       47.87667       68.10763
N         21.89833       47.81633       64.24745
C         20.98710       47.41582       63.18480
C         20.16305       46.18563       63.52075
O         19.26401       45.87673       62.75209
H         22.90871       47.75819       64.05897
H         21.55810       47.18880       62.25882
H         20.31012       48.26933       62.96383
N         20.41113       45.42705       64.62904
C         19.60173       44.27964       65.02790
C         18.90202       44.53815       66.36131
O         18.04870       43.74461       66.73347
C         20.46665       42.99928       64.97972
C         21.75683       43.07093       65.81147
N         21.52758       42.81201       67.22454
O         22.68759       42.15358       65.32728
H         21.20930       45.66450       65.22845
H         18.77714       44.13006       64.29711
H         20.78071       42.89732       63.91697
H         19.88339       42.08806       65.23612
H         20.90275       43.54177       67.61906
H         22.44810       42.90423       67.71141
N         19.17118       45.65149       67.10896
C         18.42635       46.05941       68.28431
C         18.42920       45.03334       69.38400
O         17.35804       44.63299       69.81466
H         19.91741       46.29543       66.82548
H         17.38079       46.29095       67.98881
H         18.87867       46.99488       68.67379
N         19.59867       44.56579       69.89756
C         19.62947       43.59000       70.98480
C         20.91186       42.77195       70.94385
O         21.81770       43.08451       70.18712
C         19.46216       44.34646       72.32541
C         19.40604       43.46479       73.55015
C         18.32910       42.58378       73.75134
C         20.43869       43.51318       74.50295
C         18.29162       41.76213       74.88374
C         20.40163       42.68683       75.62944
C         19.32709       41.80791       75.82382
O         19.27957       41.00538       76.90658
H         20.47827       44.91153       69.48855
H         18.80529       42.85998       70.82390
H         18.52992       44.94516       72.29849
H         20.31368       45.05793       72.41010
H         17.52126       42.53305       73.03236
H         21.28061       44.18073       74.36891
H         17.45793       41.08682       75.03006
H         21.20973       42.72951       76.34902
H         19.97684       41.00506       77.57823
N         21.04082       41.66759       71.73111
C         22.22723       40.82645       71.70467
C         22.39840       40.19688       70.32249
O         23.52046       40.11313       69.84237
C         22.21083       39.80864       72.88907
C         23.57007       39.09964       73.10875
C         21.09265       38.75490       72.77134
C         24.72420       40.06505       73.40513
H         20.27156       41.41352       72.35919
H         23.07622       41.51335       71.88898
H         22.00859       40.39474       73.81507
H         23.83232       38.46791       72.23387
H         23.47101       38.43830       73.99814
H         20.09133       39.22182       72.68745
H         21.24931       38.09912       71.89414
H         21.08010       38.11522       73.68030
H         24.47057       40.72084       74.26627
H         25.63698       39.48763       73.65808
H         24.97058       40.69229       72.52521
N         21.30411       39.84154       69.58164
C         21.36597       39.39065       68.18938
C         22.00473       38.01788       68.00578
O         22.08011       37.57543       66.86734
C         19.94813       39.37452       67.58248
O         19.38186       40.65417       67.66793
H         20.37192       39.97871       70.00232
H         21.95857       40.12779       67.60389
H         19.31473       38.64483       68.13511
H         20.00776       39.07921       66.50973
H         18.48068       40.58768       67.25774
N         22.49548       37.28838       69.05258
C         23.09077       35.96044       68.94337
C         24.37756       35.89810       68.11808
O         24.92524       34.80651       68.03864
C         22.05056       34.95384       68.41925
H         22.42813       37.66233       70.00463
H         23.36064       35.63103       69.97209
H         21.14552       34.97410       69.06380
H         21.74684       35.17719       67.37617
H         22.46184       33.92211       68.44196
N         24.91971       36.97632       67.46548
C         26.09602       36.86394       66.60483
C         27.17858       37.87678       66.95290
O         26.96967       38.73934       67.79409
C         25.65416       37.04829       65.14987
H         24.46901       37.89775       67.51779
H         26.54377       35.85055       66.69311
H         25.21334       38.05544       64.99910
H         26.50812       36.92316       64.45250
H         24.88722       36.28575       64.89402
N         28.39066       37.78954       66.32585
C         29.54317       38.66684       66.52769
C         29.80759       39.00059       67.98936
O         29.92944       40.16813       68.33653
C         29.50845       39.90266       65.59395
C         28.33667       40.87182       65.82522
C         28.46485       42.14048       65.02152
O         29.41191       42.32949       64.27315
O         27.53412       43.10135       65.15834
H         28.53511       36.99734       65.68086
H         30.43627       38.09604       66.18674
H         29.47798       39.56118       64.53483
H         30.46565       40.45034       65.74312
H         28.28543       41.17442       66.88872
H         27.39124       40.36487       65.55217
N         29.93846       38.01090       68.90995
C         30.21743       38.30765       70.29866
H         31.18706       38.84531       70.38084
H         29.41025       38.94517       70.72010
H         30.27781       37.36858       70.88573
H         29.83882       37.02653       68.62037
Ca        24.62967       43.34605       65.38492
O         25.68864       42.29371       62.81547
H         26.65086       42.32720       62.58570
H         25.53838       41.36701       63.13014
O         25.02410       40.66355       66.26281
H         24.29066       40.10892       65.89880
H         24.97260       40.54195       67.24282
O         23.79508       44.72961       62.83222
H         23.56741       45.60424       62.42927
H         23.04951       44.13169       62.57396
O         25.53433       43.42173       68.28931
H         25.89441       42.64104       68.78039
H         25.73811       44.19806       68.86897
O         26.81376       45.91580       64.17190
H         27.10672       46.69550       64.70725
H         27.51276       45.81565       63.47804

Ca 1.0



