%chk=apoCaM-CA-Ng.loop3.water5.frame1088.chk
%nprocshared=20
%mem=10GB
%nosave
#b3lyp/svp scf=(tight,noincore,xqc) Test 
#IOP(5/87=12) Density=Current Pop=(MK,readradii) iop(6/33=2) iop(6/42=6)

apoCaM-CA-Ng.loop3.water5.frame1088 

   0  1 
C         51.56541       85.14879       17.60446
C         51.67709       85.55599       16.16222
O         52.10168       86.66928       15.89073
H         50.87047       85.83441       18.13304
H         51.17516       84.11310       17.70602
H         52.56393       85.19480       18.08545
N         51.27937       84.70327       15.17973
C         51.32297       85.02249       13.75585
C         50.46531       84.01877       13.00204
O         50.94820       83.27807       12.15676
C         52.77978       85.13457       13.23598
C         53.62500       83.89812       13.41185
O         53.13485       82.78574       13.99332
O         54.78230       83.90778       13.02432
H         50.88572       83.79427       15.46620
H         50.83589       86.00908       13.58751
H         53.29009       85.96864       13.76193
H         52.75035       85.39558       12.15528
N         49.13268       83.97716       13.28904
C         48.16071       83.06954       12.69427
C         48.09389       83.25998       11.18518
O         48.17598       82.29507       10.43758
C         48.43435       81.60696       13.12957
C         48.56552       81.43435       14.66205
C         47.31888       81.79921       15.48900
C         46.14529       80.83839       15.25021
N         45.00547       81.18683       16.09881
H         48.76821       84.64713       13.98462
H         47.15997       83.35448       13.08463
H         49.39402       81.27229       12.68105
H         47.63679       80.94162       12.73764
H         49.40440       82.06764       15.01353
H         48.84408       80.38210       14.88602
H         47.01199       82.84768       15.29225
H         47.59802       81.73366       16.56357
H         46.47252       79.80191       15.49065
H         45.82822       80.87097       14.18653
H         44.23852       80.49318       15.94414
H         45.28222       81.16187       17.10748
H         44.65467       82.14102       15.85338
N         47.96431       84.51923       10.67862
C         47.88000       84.83458        9.25405
C         49.14191       85.54138        8.75710
O         49.14126       86.04280        7.64141
C         46.59867       85.65006        8.96103
C         46.58276       87.02488        9.57730
O         46.57884       87.18185       10.91418
O         46.53926       88.01065        8.85893
H         47.96864       85.30143       11.34716
H         47.79110       83.90329        8.65279
H         45.70852       85.08536        9.31376
H         46.50522       85.75837        7.85748
N         50.28734       85.52745        9.49694
C         51.55711       86.10147        9.08072
C         52.56012       84.99365        8.81674
O         52.15057       83.84265        8.74642
H         50.29957       85.03039       10.39558
H         51.90164       86.74341        9.91599
H         51.46780       86.72648        8.16654
N         53.90070       85.20724        8.67897
C         54.58901       86.48253        8.82645
C         55.45305       86.40347       10.08265
O         56.25916       85.48714       10.17687
C         55.48186       86.74451        7.59275
C         56.31766       88.00056        7.73246
N         55.74273       89.22278        7.81680
O         57.53580       87.90694        7.76873
H         54.49464       84.37620        8.52390
H         53.86376       87.31335        8.89110
H         54.85635       86.82327        6.67826
H         56.16925       85.87904        7.46393
H         54.71941       89.33079        7.77715
H         56.32542       90.06710        7.92546
N         55.38954       87.32039       11.08929
C         54.50674       88.47399       11.04532
C         54.72279       89.44836       12.17004
O         55.54757       89.22908       13.04398
H         56.02769       87.19455       11.88907
H         53.44956       88.13583       11.05848
H         54.70272       89.04507       10.12174
N         53.96818       90.58241       12.19088
C         54.08322       91.57681       13.25018
C         52.90561       92.54458       13.21725
O         52.21541       92.65256       12.21449
C         55.43839       92.32654       13.14546
C         55.73705       93.19489       14.34243
C         55.88305       94.58619       14.20966
C         55.89318       92.60667       15.60877
C         56.17184       95.37416       15.32958
C         56.18117       93.39487       16.72468
C         56.32042       94.78286       16.58927
O         56.59905       95.55449       17.65914
H         53.25959       90.69157       11.45148
H         54.00521       91.01523       14.20638
H         55.43715       92.92542       12.20728
H         56.27849       91.60588       13.06573
H         55.77501       95.06228       13.24306
H         55.79578       91.53537       15.73095
H         56.28199       96.44559       15.21839
H         56.29760       92.92431       17.69268
H         56.70964       95.18220       18.54592
N         52.57043       93.22095       14.34938
C         51.38434       94.07081       14.44481
C         51.45443       95.27413       13.51666
O         52.48205       95.51035       12.89403
C         51.12342       94.50577       15.92273
C         50.74405       93.26360       16.76962
C         52.31179       95.29451       16.51874
C         50.33655       93.59759       18.20338
H         53.14135       93.04901       15.18492
H         50.50794       93.47145       14.10973
H         50.23928       95.17784       15.93524
H         51.57541       92.52815       16.79805
H         49.86891       92.77235       16.28854
H         52.05859       95.68781       17.52320
H         53.22036       94.66855       16.62585
H         52.55960       96.16745       15.88027
H         50.00271       92.66948       18.71367
H         51.19220       94.00965       18.77502
H         49.49803       94.32574       18.20688
N         50.35880       96.07743       13.37910
C         50.31502       97.25731       12.52598
C         49.19982       97.15148       11.49205
O         48.44831       96.18572       11.49062
C         50.13141       98.50173       13.41100
O         48.92132       98.42496       14.11483
H         49.50779       95.84929       13.91586
H         51.27388       97.37303       11.97439
H         50.14236       99.42401       12.79113
H         50.98322       98.54670       14.12751
H         48.92385       99.18607       14.75149
N         49.05231       98.14344       10.56958
C         48.03851       98.19725        9.52312
C         46.62600       98.28246       10.08235
O         45.73917       97.59889        9.58923
C         48.21701       97.05394        8.51161
H         49.71370       98.93425       10.60026
H         48.20248       99.14894        8.96984
H         49.24722       97.07261        8.09805
H         48.03951       96.06610        8.98528
H         47.50259       97.17161        7.66865
N         46.34618       99.15448       11.09517
C         45.00833       99.47913       11.58228
C         44.08111       98.27678       11.68841
O         43.03161       98.27162       11.05717
C         44.41763      100.58752       10.70182
H         47.12490       99.69661       11.49990
H         45.10812       99.91545       12.60132
H         44.28967      100.23212        9.65733
H         43.43157      100.90990       11.10109
H         45.09404      101.46863       10.70030
N         44.39822       97.22666       12.49402
C         43.52071       96.07466       12.67021
C         43.01786       96.04364       14.09886
O         41.80923       96.03204       14.28911
C         44.22941       94.77828       12.23036
C         43.26108       93.58229       12.27436
C         43.83960       92.36557       11.61628
O         44.96227       91.79394       12.08331
O         43.28035       91.87683       10.64687
H         45.28610       97.25940       13.01793
H         42.62759       96.16377       12.01120
H         45.13224       94.57542       12.84734
H         44.55350       94.92253       11.17494
H         42.32892       93.84983       11.72850
H         42.99393       93.34406       13.32574
N         43.88012       96.08634       15.15337
C         43.44023       96.13588       16.53412
H         42.33599       96.06649       16.63269
H         43.89652       95.29856       17.09958
H         43.76475       97.09749       16.98589
H         44.89474       96.12783       14.97950
Ca        45.66476       89.95350       10.98812
O         48.56895       90.26653       11.65638
H         47.99889       90.18924       12.46267
H         48.40427       91.18482       11.32405
O         43.17498       87.82299       11.03279
H         42.37222       88.29418       11.37065
H         43.15844       86.94450       11.48932
O         43.74347       89.63178        8.38991
H         42.77847       89.41610        8.33941
H         44.14775       89.14349        7.62940
O         46.34911       91.96703        8.75758
H         46.41539       92.48763        9.59734
H         45.41688       92.10481        8.45370
O         44.84981       89.09205       13.72081
H         44.30643       88.26540       13.75735
H         45.21491       89.19358       14.63521

Ca 1.0



