%chk=apoCaM-CA-Ng.loop3.water5.frame316.chk
%nprocshared=20
%mem=10GB
%nosave
#b3lyp/svp scf=(tight,noincore,xqc) Test 
#IOP(5/87=12) Density=Current Pop=(MK,readradii) iop(6/33=2) iop(6/42=6)

apoCaM-CA-Ng.loop3.water5.frame316 

   0  1 
C         57.58919       81.32644       53.89708
C         57.91080       80.10086       54.69750
O         57.64554       79.00292       54.23326
H         56.87143       81.95858       54.45895
H         58.51802       81.90161       53.70269
H         57.13253       81.05591       52.92305
N         58.48700       80.22057       55.92943
C         58.85160       79.08855       56.78124
C         57.63378       78.29276       57.25757
O         57.82401       77.23961       57.85088
C         59.90049       78.18063       56.08583
C         61.16690       78.90685       55.69897
O         61.32644       80.22326       55.94240
O         62.07153       78.28785       55.16245
H         58.69500       81.16791       56.28065
H         59.34100       79.47735       57.70221
H         59.47234       77.70607       55.18031
H         60.18991       77.36646       56.78535
N         56.35597       78.75678       57.10182
C         55.17979       78.02581       57.57514
C         54.84577       76.81180       56.72579
O         53.87216       76.13959       57.04172
C         53.92229       78.92741       57.51966
C         53.92917       80.15007       58.44158
C         54.12551       79.74830       59.91334
C         53.77673       80.86827       60.90157
N         52.33416       81.13120       60.93439
H         56.20935       79.68699       56.68606
H         55.34714       77.69121       58.62048
H         53.03493       78.32633       57.82161
H         53.75264       79.26557       56.47209
H         52.93767       80.62161       58.29270
H         54.70426       80.88939       58.14559
H         55.19152       79.46508       60.05281
H         53.49678       78.86669       60.16608
H         54.33803       81.79649       60.65683
H         54.08908       80.53087       61.91431
H         51.99768       81.53170       60.03154
H         51.81317       80.24703       61.14152
H         52.12901       81.82024       61.69214
N         55.53838       76.50706       55.59923
C         55.06602       75.53783       54.62798
C         56.04598       74.39276       54.55093
O         57.23945       74.64013       54.58128
C         54.89803       76.30135       53.30159
C         54.02884       75.60049       52.30287
O         54.40833       74.44717       51.74130
O         52.98992       76.12587       51.93439
H         56.38124       77.03998       55.34752
H         54.06192       75.14730       54.90620
H         55.88836       76.55252       52.86052
H         54.38108       77.25923       53.53508
N         55.61487       73.10238       54.49204
C         56.50936       71.95231       54.45115
C         57.36708       71.83232       53.19588
O         58.11515       70.86809       53.12179
H         54.60130       72.91965       54.50983
H         55.89555       71.02862       54.51551
H         57.17197       71.97938       55.34435
N         57.35324       72.75724       52.19122
C         58.21938       72.69331       51.01411
C         59.36356       73.69362       51.11924
O         60.20427       73.70924       50.23170
C         57.37467       72.97227       49.75463
C         56.38248       71.87282       49.50921
N         56.78421       70.64976       49.10013
O         55.19833       72.09092       49.66564
H         56.75036       73.58447       52.27214
H         58.70595       71.69799       50.93012
H         58.00041       73.07453       48.84268
H         56.84069       73.94019       49.90326
H         57.78104       70.45220       48.93709
H         56.09023       69.90888       48.91890
N         59.47002       74.55168       52.17504
C         60.53451       75.51866       52.35625
C         60.65528       76.40039       51.15093
O         61.75415       76.53856       50.63055
H         58.75155       74.55462       52.89472
H         61.49693       74.99843       52.54977
H         60.29473       76.14160       53.24718
N         59.54692       76.97726       50.61167
C         59.57370       77.73461       49.36912
C         58.72827       77.03548       48.31973
O         58.12433       76.01115       48.62162
C         59.17830       79.21200       49.59372
C         57.70893       79.49406       49.83583
C         57.00422       80.28332       48.90784
C         57.03082       79.02520       50.97355
C         55.65647       80.58797       49.10844
C         55.68057       79.32645       51.16937
C         54.98891       80.10976       50.23788
O         53.68929       80.41543       50.42258
H         58.64050       76.79380       51.06331
H         60.61427       77.76034       48.97775
H         59.49174       79.76222       48.68062
H         59.78281       79.62758       50.42863
H         57.49892       80.67302       48.02728
H         57.53287       78.44484       51.72604
H         55.13378       81.20170       48.38614
H         55.17575       78.96133       52.05221
H         53.19473       80.10815       51.19570
N         58.64721       77.51626       47.05037
C         57.89541       76.82661       46.00691
C         58.55584       75.47470       45.76346
O         57.89007       74.46341       45.92583
C         57.76218       77.70094       44.72035
C         57.11109       79.08826       45.01114
C         56.94552       76.98644       43.62368
C         55.68789       79.03677       45.58817
H         59.15466       78.38424       46.82188
H         56.85922       76.64545       46.36774
H         58.78081       77.89209       44.31485
H         57.07878       79.67176       44.06538
H         57.74009       79.66689       45.71596
H         57.40809       76.04080       43.31590
H         55.92311       76.73629       43.96944
H         56.87723       77.62681       42.71807
H         54.98418       78.53384       44.89473
H         55.66723       78.52237       46.57030
H         55.31748       80.07081       45.74518
N         59.88748       75.38041       45.45977
C         60.57288       74.08826       45.35123
C         60.13471       73.28104       44.13473
O         60.49368       72.11495       44.04479
C         62.09972       74.27837       45.32018
O         62.53541       75.00554       46.43818
H         60.43728       76.24981       45.38766
H         60.32889       73.50445       46.26744
H         62.39004       74.83579       44.40409
H         62.62232       73.29482       45.28915
H         62.39281       74.42602       47.23162
N         59.35071       73.83280       43.16689
C         58.81628       73.13474       42.00787
C         57.94881       71.94821       42.41079
O         57.95263       70.94700       41.70757
C         59.93934       72.75114       41.03193
H         59.10126       74.82089       43.24618
H         58.15590       73.85127       41.46928
H         60.63265       72.01388       41.48676
H         59.51232       72.31209       40.10506
H         60.51743       73.65662       40.74873
N         57.18345       71.98788       43.54423
C         56.33335       70.87943       43.97113
C         54.89967       71.33192       44.16954
O         54.64418       72.52738       44.23083
C         56.87898       70.28118       45.26868
H         57.22139       72.82384       44.14321
H         56.33215       70.08264       43.19669
H         56.25671       69.42133       45.59559
H         57.91748       69.92066       45.10658
H         56.89100       71.04566       46.07557
N         53.89459       70.40316       44.22076
C         52.47530       70.72392       44.38177
C         51.93902       71.64859       43.28656
O         50.80829       72.09791       43.41813
C         52.19583       71.30395       45.78372
C         52.55450       70.31654       46.90811
C         52.25550       70.94838       48.23300
O         51.51377       70.42219       49.04727
O         52.85005       72.12115       48.49208
H         54.14339       69.40766       44.12062
H         51.88155       69.78529       44.32181
H         51.10954       71.52660       45.87640
H         52.75284       72.25676       45.91680
H         53.64334       70.09360       46.86992
H         51.99222       69.36398       46.79433
N         52.66102       71.95337       42.16681
C         52.19063       72.85473       41.13468
H         51.20687       73.30733       41.37847
H         52.92665       73.67669       41.00820
H         52.10056       72.30234       40.17676
H         53.58226       71.52601       42.00600
Ca        53.02964       73.56091       50.20317
O         54.04258       75.02182       47.85509
H         54.50520       74.14834       47.79561
H         54.45385       75.46604       48.63892
O         51.46829       74.12889       53.31688
H         50.91548       74.94989       53.28646
H         51.43547       73.83872       54.26209
O         53.29171       71.42328       52.65731
H         52.95479       71.35127       53.58583
H         54.10900       70.86455       52.64522
O         50.23541       72.11989       51.52530
H         49.77718       72.17117       52.40162
H         49.69865       71.47229       51.00382
O         50.77698       75.30443       49.27053
H         51.23156       76.16736       49.44173
H         49.81618       75.49512       49.41331

Ca 1.0



