%chk=apoCaM-CA-Ng.loop3.water4.frame1024.chk
%nprocshared=20
%mem=10GB
%nosave
#b3lyp/svp scf=(tight,noincore,xqc) Test 
#IOP(5/87=12) Density=Current Pop=(MK,readradii) iop(6/33=2) iop(6/42=6)

apoCaM-CA-Ng.loop3.water4.frame1024 

   0  1 
C         24.12774       37.30270       36.07856
C         23.56457       37.48168       34.70485
O         23.88860       38.46548       34.05335
H         24.79753       38.15054       36.33795
H         23.29535       37.27186       36.81341
H         24.70123       36.35534       36.12701
N         22.66666       36.58197       34.21436
C         21.99478       36.77700       32.94227
C         20.68907       37.50245       33.18667
O         20.58008       38.63160       32.72954
C         21.93809       35.47594       32.09375
C         21.40224       34.22936       32.75808
O         22.14315       33.27318       32.92747
O         20.10468       34.11283       33.08968
H         22.36318       35.80512       34.82145
H         22.58943       37.47637       32.30903
H         22.98556       35.25171       31.79407
H         21.36354       35.66117       31.16054
N         19.67190       36.96378       33.91603
C         18.38044       37.62429       34.08306
C         17.47111       37.20066       32.93339
O         16.43379       36.58958       33.14976
C         17.78644       37.29682       35.47129
C         18.68405       37.77398       36.62711
C         18.05674       37.41143       37.98038
C         18.93521       37.86615       39.15390
N         18.32930       37.49078       40.43209
H         19.79106       36.03217       34.32912
H         18.49495       38.73071       34.02908
H         17.63605       36.19793       35.55474
H         16.79696       37.79716       35.56421
H         18.81834       38.87644       36.56231
H         19.68233       37.28986       36.55269
H         17.92617       36.30838       38.03519
H         17.05841       37.89408       38.06563
H         19.06333       38.97095       39.11826
H         19.93932       37.39306       39.07387
H         18.94477       37.81322       41.21339
H         17.39065       37.94125       40.53281
H         18.22795       36.45115       40.49024
N         17.84200       37.50411       31.65796
C         17.13425       37.12059       30.44732
C         18.06746       36.27332       29.59622
O         19.22741       36.63991       29.45940
C         16.68102       38.37184       29.65480
C         17.83166       39.12619       28.98100
O         17.37036       40.10378       28.09637
O         18.69110       39.74813       29.89051
H         18.70555       38.03233       31.52429
H         16.21245       36.54908       30.69327
H         16.07507       39.04873       30.29595
H         16.02860       38.01140       28.83000
N         17.63271       35.16190       28.94386
C         18.52590       34.37473       28.10772
C         19.49579       33.60340       28.97843
O         19.01193       32.81123       29.77429
H         16.63835       34.89573       29.00064
H         19.01071       35.05046       27.37543
H         17.93381       33.63111       27.53249
N         20.85463       33.75280       28.95827
C         21.61273       34.65472       28.09417
C         23.06635       34.70486       28.57598
O         23.68034       33.65101       28.67322
C         21.61404       34.17883       26.62124
C         22.29007       35.20342       25.73492
N         23.46368       34.93021       25.11843
O         21.77286       36.30075       25.58447
H         21.37937       33.20223       29.65724
H         21.15150       35.65760       28.14999
H         20.59172       34.01970       26.22840
H         22.13958       33.20111       26.56057
H         23.92773       34.01907       25.24069
H         23.92242       35.64354       24.53132
N         23.72128       35.86508       28.86186
C         23.11995       37.17773       28.70054
C         24.09909       38.30970       28.87086
O         25.26234       38.08787       29.18366
H         24.70765       35.78723       29.15481
H         22.27855       37.30142       29.41661
H         22.74165       37.27076       27.66584
N         23.67204       39.58497       28.66195
C         24.55611       40.73761       28.79299
C         23.76384       42.04924       28.84237
O         22.54809       42.02937       28.70186
C         25.62304       40.72190       27.65154
C         26.79694       41.60968       27.97458
C         27.11066       42.73001       27.18679
C         27.57497       41.32850       29.11121
C         28.16650       43.57242       27.55645
C         28.62595       42.16762       29.47550
C         28.92037       43.29928       28.70495
O         29.91943       44.13035       29.06268
H         22.67563       39.71724       28.43873
H         25.04550       40.64142       29.78543
H         25.13257       41.00074       26.69219
H         26.04689       39.70652       27.51144
H         26.52553       42.96611       26.30685
H         27.35695       40.46443       29.72665
H         28.39083       44.44601       26.95797
H         29.20204       41.94063       30.36362
H         30.44502       43.98369       29.86266
N         24.39226       43.23371       29.08195
C         23.69903       44.50611       29.24580
C         23.98159       45.45200       28.10029
O         24.82828       45.18028       27.25955
C         24.06961       45.17246       30.61366
C         23.44556       44.46185       31.83418
C         25.59799       45.27025       30.81769
C         21.91981       44.51722       31.82794
H         25.41041       43.24155       29.16822
H         22.60450       44.35364       29.17813
H         23.67336       46.21115       30.61860
H         23.77954       44.99216       32.75290
H         23.78281       43.40451       31.89703
H         26.08405       45.77700       29.95822
H         25.82774       45.84625       31.73783
H         26.05717       44.26693       30.95203
H         21.56837       45.56872       31.73303
H         21.51945       43.91256       30.99682
H         21.52173       44.09483       32.77290
N         23.21433       46.57430       27.98640
C         23.31675       47.53068       26.89558
C         22.05620       47.48844       26.05394
O         21.12340       46.77588       26.39717
C         23.51718       48.94383       27.47496
O         22.40725       49.30448       28.25892
H         22.47201       46.73300       28.68722
H         24.17675       47.27997       26.23790
H         23.65345       49.66774       26.63904
H         24.43059       48.96952       28.10597
H         22.26904       50.28133       28.15053
N         21.96018       48.25613       24.93265
C         20.75953       48.37387       24.11689
C         19.63999       48.98379       24.94207
O         18.55350       48.42609       25.01881
C         20.38607       47.03208       23.46249
H         22.77224       48.82839       24.65596
H         20.97849       49.08843       23.29287
H         20.12276       46.26065       24.21477
H         19.51356       47.16676       22.78861
H         21.23959       46.65847       22.85801
N         19.87334       50.15616       25.60594
C         18.90161       50.89434       26.40855
C         18.39819       50.16256       27.64831
O         17.59763       50.75396       28.36120
C         17.72297       51.34182       25.53208
H         20.80922       50.58126       25.51690
H         19.40344       51.81807       26.77436
H         18.09869       51.92097       24.66245
H         17.13855       50.47492       25.16157
H         17.03781       51.99654       26.11187
N         18.78320       48.89564       27.98244
C         18.20701       48.19755       29.12298
C         18.62453       48.86879       30.41652
O         17.76271       49.30043       31.16959
C         18.58568       46.70157       29.10691
C         17.72370       45.91864       30.10983
C         17.97962       44.44975       30.02005
O         19.19609       43.96197       30.31004
O         17.08093       43.68819       29.69899
H         19.45656       48.39036       27.39754
H         17.09936       48.23527       29.00922
H         19.67231       46.55699       29.30117
H         18.36220       46.29924       28.09330
H         16.65077       46.10015       29.87682
H         17.92367       46.25681       31.14779
N         19.94277       49.01308       30.72430
C         20.38664       49.67681       31.93039
H         21.49686       49.71185       31.95629
H         20.00124       50.71884       31.95377
H         20.02462       49.12590       32.82365
H         20.65728       48.65771       30.07273
Ca        18.87347       41.67739       28.72592
O         19.06245       41.54746       25.60366
H         18.37859       40.84251       25.72674
H         19.60297       41.23498       24.83562
O         20.36591       39.30472       27.29141
H         20.48187       38.40843       27.69490
H         21.03634       39.34254       26.56483
O         20.62589       43.73253       27.26791
H         21.26751       43.54278       26.53798
H         20.02216       44.42385       26.89843
O         21.43239       40.94058       31.10613
H         22.41042       40.85556       31.23339
H         21.18938       40.15301       30.55799

Ca 1.0



