%chk=apoCaM-CA-Ng.loop1.water3.frame1352.chk
%nprocshared=20
%mem=10GB
%nosave
#b3lyp/svp scf=(tight,noincore,xqc) Test 
#IOP(5/87=12) Density=Current Pop=(MK,readradii) iop(6/33=2) iop(6/42=6)

apoCaM-CA-Ng.loop1.water3.frame1352 

   0  1 
C         61.17474       38.54582       81.58391
C         60.72321       39.62181       80.64496
O         60.82794       39.43882       79.44048
H         61.97363       38.94152       82.24640
H         60.31782       38.20547       82.20000
H         61.58123       37.67885       81.01935
N         60.23670       40.79751       81.13624
C         59.83641       41.91133       80.28275
C         60.83516       43.03925       80.43306
O         60.46787       44.18761       80.63866
C         58.36894       42.30735       80.56079
C         58.09379       42.63760       82.00946
O         57.29485       41.96721       82.64370
O         58.71144       43.66955       82.61492
H         60.20196       40.92500       82.15956
H         59.90160       41.61942       79.21309
H         57.72645       41.44772       80.26939
H         58.08433       43.17221       79.92368
N         62.15906       42.74768       80.33138
C         63.20803       43.74820       80.43254
C         63.19104       44.62938       79.19488
O         63.04819       45.83219       79.36440
C         64.58643       43.11059       80.74437
C         64.48154       42.27848       82.03996
C         65.81783       41.72047       82.52597
C         65.57884       40.85421       83.77477
N         66.83294       40.34280       84.32000
H         62.42571       41.76162       80.20410
H         63.00152       44.38548       81.32367
H         65.32250       43.93111       80.89325
H         64.96352       42.46618       79.92654
H         63.79568       41.42164       81.87395
H         64.05833       42.91358       82.84940
H         66.49709       42.56520       82.77290
H         66.28449       41.09971       81.73047
H         64.91897       39.99767       83.50625
H         65.06313       41.45551       84.55708
H         67.43736       41.13926       84.62616
H         66.61994       39.74182       85.14917
H         67.33168       39.76908       83.60242
N         63.24690       44.15897       77.91072
C         63.37274       42.75862       77.49950
C         62.07808       42.24728       76.88117
O         61.13797       43.00791       76.70706
C         64.59981       42.58193       76.58403
C         64.62338       43.57556       75.46212
O         63.71000       43.62717       74.65756
O         65.63801       44.45667       75.38179
H         63.14539       44.85913       77.15894
H         63.53569       42.10003       78.36038
H         64.64446       41.54792       76.18018
H         65.51517       42.74533       77.19307
N         61.93295       40.91089       76.64584
C         60.67304       40.29217       76.26115
C         60.28489       40.49469       74.81727
O         60.99796       41.14061       74.06694
H         62.71791       40.28214       76.87480
H         59.86419       40.63448       76.94076
H         60.77649       39.19199       76.39148
N         59.13089       39.92534       74.36753
C         58.71178       39.86564       72.96275
C         58.15807       38.45923       72.66345
O         58.02600       37.68628       73.60418
C         57.64767       40.95269       72.72174
C         58.20461       42.32661       72.97075
O         59.13713       42.74338       72.30116
O         57.67111       43.10738       73.92890
H         58.51851       39.48862       75.07546
H         59.58576       40.05184       72.30243
H         56.78160       40.77366       73.39515
H         57.28247       40.94009       71.68269
N         57.79818       37.98996       71.42957
C         57.93222       38.64262       70.13895
C         59.37416       38.85769       69.77450
O         60.15926       37.92591       69.87978
H         57.40940       37.03350       71.39393
H         57.32843       39.56483       70.06707
H         57.52193       37.95086       69.37057
N         59.78225       40.04876       69.26052
C         61.16233       40.29351       68.86432
C         62.01419       40.42665       70.10721
O         61.67391       41.21840       70.96784
C         61.29213       41.56868       67.99662
C         60.47818       41.44515       66.69876
O         62.64628       41.74249       67.66007
H         59.07875       40.78884       69.11633
H         61.52357       39.45623       68.22413
H         60.93287       42.44609       68.58263
H         62.73092       42.63864       67.24123
H         59.39670       41.31939       66.90640
H         60.60277       42.36434       66.08813
H         60.83350       40.57690       66.10275
N         63.15547       39.70154       70.24673
C         64.08284       39.80731       71.36823
C         64.63367       41.27425       71.45617
O         64.09598       41.93017       72.57602
C         63.46698       39.28705       72.71137
C         62.64965       37.97960       72.57785
C         64.53612       39.16054       73.81571
C         63.43291       36.77115       72.07469
H         63.41494       39.05453       69.48635
H         64.92328       39.12142       71.11875
H         62.73267       40.02700       73.04950
H         61.79968       38.15714       71.88790
H         62.20713       37.73133       73.56859
H         64.06352       38.84967       74.77228
H         65.31021       38.41652       73.53824
H         65.04888       40.12561       74.00103
H         63.84179       36.96417       71.06247
H         64.25617       36.51288       72.77004
H         62.74595       35.90069       72.01300
N         66.09566       41.27551       71.56632
C         66.71260       42.61359       71.69483
C         67.04882       43.30296       70.36340
O         67.74626       44.30094       70.42059
C         67.95054       42.48604       72.61970
C         69.05369       41.59097       72.05442
O         67.55282       41.95875       73.85977
H         66.55607       40.70951       70.81632
H         66.03848       43.31195       72.23886
H         68.40153       43.49536       72.77660
H         67.19607       42.71334       74.39410
H         69.42890       41.98988       71.08995
H         69.89963       41.55824       72.77458
H         68.68541       40.55417       71.90869
N         66.59246       42.85709       69.15111
C         66.90694       43.47177       67.84897
C         66.32082       44.89082       67.74014
O         65.25890       45.04838       67.15502
C         66.36331       42.54920       66.71300
C         66.78707       43.01369       65.31374
O         66.84829       41.24307       66.90470
H         65.99099       42.02241       69.14206
H         68.01149       43.50846       67.71791
H         65.24809       42.54725       66.77467
H         66.13170       40.61839       66.61505
H         66.36376       42.32453       64.55129
H         66.42272       44.03669       65.09105
H         67.89421       42.99746       65.22420
N         66.96377       45.96845       68.28788
C         66.44244       47.33721       68.35186
C         65.15801       47.39513       69.15662
O         64.17755       46.77551       68.77593
C         66.23556       47.99302       66.97804
C         67.53774       48.08520       66.17592
C         67.31915       48.92611       64.91369
C         68.59495       49.01250       64.07048
N         68.38110       49.85676       62.89553
H         67.88953       45.82301       68.71069
H         67.20350       47.95755       68.87828
H         65.87013       49.02862       67.16596
H         65.46250       47.46058       66.38511
H         67.87836       47.06160       65.90752
H         68.32393       48.57526       66.79288
H         67.01362       49.95337       65.21515
H         66.50655       48.47783       64.30177
H         68.88803       47.99011       63.74387
H         69.42210       49.43924       64.68073
H         68.15081       50.83276       63.19407
H         69.25539       49.87606       62.32297
H         67.60118       49.47443       62.31280
N         65.08783       48.14800       70.28694
C         63.91244       48.15617       71.14762
C         63.96124       46.98800       72.11661
O         63.02813       46.20218       72.07461
C         63.69293       49.51335       71.83991
C         63.42543       50.61408       70.80296
C         63.14659       51.92648       71.47219
O         62.07310       52.48398       71.30752
O         64.08361       52.50108       72.24981
H         65.90703       48.71213       70.54983
H         62.99901       48.01579       70.52210
H         64.55343       49.79356       72.47734
H         62.79571       49.42888       72.49390
H         62.54656       50.32480       70.18305
H         64.30266       50.73188       70.13236
N         64.96632       46.73705       73.00729
C         66.16998       47.51323       73.22417
H         67.05580       46.88286       72.99657
H         66.23528       48.42250       72.61756
H         66.21788       47.82120       74.28890
H         64.87538       45.89135       73.58345
Ca        62.47492       43.46223       72.09376
O         60.42175       45.37216       70.79857
H         59.47931       45.67446       70.81335
H         60.86023       45.95150       70.12575
O         63.46402       44.39213       69.66040
H         63.06116       43.52371       69.42371
H         64.30000       44.15788       70.13445
O         60.41441       44.99529       74.27408
H         60.12519       44.14575       74.68995
H         59.58223       45.37641       73.89726

Ca 1.0



