%chk=apoCaM-CA-Ng.loop2.water5.frame121.chk
%nprocshared=20
%mem=10GB
%nosave
#b3lyp/svp scf=(tight,noincore,xqc) Test 
#IOP(5/87=12) Density=Current Pop=(MK,readradii) iop(6/33=2) iop(6/42=6)

apoCaM-CA-Ng.loop2.water5.frame121 

   -2  1 
C         43.04093       43.37635        9.19286
C         44.01211       42.30836        8.79724
O         44.34670       42.21404        7.62419
H         42.13164       42.90256        9.61805
H         43.49996       44.04304        9.95085
H         42.74462       43.98191        8.30889
N         44.51110       41.44829        9.73179
C         45.42756       40.37350        9.36859
C         44.76919       39.32984        8.47450
O         45.49121       38.48927        7.96544
C         46.05713       39.70376       10.61297
C         45.09639       38.96803       11.51519
O         45.57316       38.34599       12.60985
O         43.90096       38.91695       11.27218
H         44.24525       41.58051       10.71966
H         46.26685       40.83821        8.80234
H         46.57396       40.48414       11.21195
H         46.82678       38.97682       10.27202
N         43.41713       39.30524        8.25159
C         42.74711       38.37491        7.35148
C         43.15673       38.67891        5.91762
O         42.86955       39.78109        5.47278
C         42.93351       36.91902        7.81202
H         42.81279       39.98131        8.73560
H         41.65145       38.55956        7.40467
H         42.55643       36.80835        8.85114
H         42.34502       36.24074        7.15772
H         43.99127       36.59194        7.79509
N         43.84829       37.79382        5.14395
C         44.27124       38.08271        3.77646
C         45.79025       38.24242        3.69292
O         46.29914       38.39105        2.59038
C         43.79204       36.94647        2.84795
C         42.29929       36.76664        2.88625
O         41.77251       35.59286        3.28583
O         41.55923       37.67363        2.54103
H         44.12921       36.88393        5.53505
H         43.82923       39.03569        3.40805
H         44.27882       35.99481        3.15386
H         44.08651       37.16634        1.79862
N         46.57986       38.24935        4.81199
C         48.03381       38.34423        4.78974
C         48.59996       39.63312        4.20988
O         49.80772       39.69038        4.03000
H         46.14920       38.13597        5.73277
H         48.41253       37.48996        4.18913
H         48.42638       38.23165        5.82415
N         47.81057       40.68413        3.85203
C         48.30337       41.83189        3.08894
C         49.29540       42.70747        3.84949
O         48.95001       43.27826        4.87448
C         47.11707       42.69088        2.61497
C         46.18327       41.87684        1.75035
N         44.91124       41.63594        2.14254
O         46.58795       41.41468        0.69360
H         46.80054       40.62626        4.04222
H         48.79986       41.43940        2.17289
H         47.48430       43.55485        2.01919
H         46.57785       43.08259        3.50502
H         44.55778       41.99967        3.03844
H         44.28310       41.06615        1.55705
N         50.55057       42.88658        3.34543
C         51.56145       43.77756        3.89707
C         51.21799       45.23918        3.69035
O         50.86914       45.60785        2.57752
H         50.81790       42.36191        2.49857
H         52.49606       43.61519        3.31706
H         51.78318       43.53109        4.95751
N         51.37316       46.14676        4.69926
C         51.17991       47.58910        4.50477
C         49.72791       48.01011        4.72061
O         49.42399       49.18337        4.55017
C         52.17309       48.41527        5.37801
C         51.93486       48.33759        6.89586
O         53.50066       48.06663        5.07049
H         51.72267       45.80569        5.60604
H         51.44358       47.84311        3.45374
H         52.05252       49.48783        5.10824
H         53.69310       47.18652        5.48729
H         52.68891       48.95894        7.42446
H         50.94270       48.75051        7.14445
H         52.01045       47.30013        7.27978
N         48.78431       47.10914        5.11135
C         47.38431       47.42085        5.39045
C         46.47717       46.54805        4.53525
O         46.97637       45.75399        3.74804
C         47.10290       47.21582        6.91795
C         47.51237       45.79413        7.40331
C         47.80954       48.31899        7.71935
C         47.18774       45.51187        8.86804
H         49.06760       46.13003        5.24297
H         47.14350       48.47706        5.13321
H         46.01873       47.35518        7.10666
H         48.60575       45.64039        7.28795
H         46.98190       45.03629        6.78764
H         48.90264       48.22218        7.62354
H         47.49934       49.32022        7.34916
H         47.54140       48.27697        8.79313
H         47.75850       46.18395        9.54095
H         46.10035       45.62505        9.05362
H         47.48936       44.47042        9.11016
N         45.12099       46.61724        4.67140
C         44.20196       45.72326        3.98112
C         43.16204       46.54552        3.22742
O         41.96714       46.36609        3.40881
C         43.67395       44.73910        5.04587
C         42.74857       43.65068        4.59430
O         42.27655       43.62612        3.46965
O         42.40945       42.70875        5.49508
H         44.71421       47.28017        5.34888
H         44.74232       45.11411        3.22328
H         43.16704       45.30038        5.86165
H         44.56458       44.23434        5.48100
N         43.59651       47.48908        2.34535
C         42.74725       48.30212        1.47313
C         41.62544       49.01667        2.22971
O         41.92450       49.81978        3.09907
C         43.61895       49.31235        0.66910
C         44.42886       50.26268        1.53763
C         43.88098       51.48008        1.98268
C         45.74652       49.93592        1.91436
C         44.62188       52.33140        2.80970
C         46.48086       50.78698        2.74378
C         45.91802       51.98156        3.19535
H         44.61469       47.60286        2.27236
H         42.30300       47.61812        0.72624
H         42.99278       49.89169       -0.04451
H         44.32519       48.72563        0.04154
H         42.87664       51.76722        1.69730
H         46.20700       49.01569        1.57910
H         44.18934       53.26106        3.15621
H         47.48619       50.51700        3.03876
H         46.48813       52.63719        3.84085
N         40.29854       48.78700        1.95940
C         39.20463       49.48766        2.61785
C         39.10575       49.10956        4.08552
O         38.93234       49.99748        4.90874
C         37.97747       49.10980        1.77261
C         38.30718       47.72844        1.26162
C         39.80246       47.84750        0.96503
H         39.30146       50.59472        2.54431
H         36.99193       49.23020        2.27183
H         37.98301       49.76316        0.86977
H         38.14862       47.02024        2.09698
H         37.69412       47.36639        0.40905
H         40.24578       46.83226        1.05464
H         39.99456       48.27514       -0.04336
N         39.24858       47.81861        4.49327
C         39.15779       47.39309        5.88878
C         40.26874       47.99048        6.75344
O         40.19562       47.84700        7.96614
C         39.20907       45.85059        5.95183
C         38.00322       45.20386        5.22744
C         38.29213       43.76165        4.95016
O         38.54662       42.90863        5.95199
O         38.43398       43.38500        3.79708
H         39.44289       47.10656        3.77959
H         38.18069       47.73488        6.29664
H         39.23214       45.48322        7.00162
H         40.16157       45.53941        5.46327
H         37.83498       45.68604        4.24377
H         37.07602       45.32914        5.82515
N         41.32174       48.67284        6.21774
C         42.33934       49.30392        7.02895
H         43.09364       49.79251        6.37375
H         41.87676       50.08545        7.66925
H         42.85099       48.55083        7.66276
H         41.42063       48.75519        5.20180
Ca        40.39500       41.73893        5.51027
O         37.51197       40.17349        6.60513
H         37.59377       39.32236        7.10374
H         37.47363       40.86765        7.30988
O         39.77347       38.44616        5.42122
H         39.12353       37.74055        5.66564
H         39.82499       38.40443        4.43420
O         40.44943       40.94246        8.34133
H         39.85103       40.15407        8.35061
H         39.84154       41.72158        8.39386
O         41.19965       41.13677        2.42894
H         40.70167       41.91834        2.07909
H         41.50159       40.65341        1.61981
O         38.19473       40.22375        2.70395
H         38.69661       40.12247        1.85645
H         37.39225       40.74715        2.45437

Ca 1.0



