%chk=apoCaM-CA-Ng.loop1.water4.frame306.chk
%nprocshared=20
%mem=10GB
%nosave
#b3lyp/svp scf=(tight,noincore,xqc) Test 
#IOP(5/87=12) Density=Current Pop=(MK,readradii) iop(6/33=2) iop(6/42=6)

apoCaM-CA-Ng.loop1.water4.frame306 

   0  1 
C         52.22423       68.14796       37.62493
C         53.17857       69.30765       37.68935
O         54.24009       69.17582       38.28122
H         51.30288       68.41028       37.06093
H         52.70970       67.28995       37.11511
H         51.92941       67.84788       38.65150
N         52.86389       70.48407       37.08273
C         53.73947       71.65294       37.07466
C         53.78507       72.37133       38.42656
O         54.39450       73.42327       38.47655
C         53.24841       72.67359       36.01127
C         53.29257       72.13403       34.60284
O         54.00537       72.66869       33.76831
O         52.52940       71.08573       34.23994
H         51.97119       70.53425       36.56908
H         54.76751       71.35101       36.77493
H         53.90696       73.56962       36.04115
H         52.21419       73.00646       36.24662
N         53.13520       71.93180       39.54290
C         52.96110       72.76500       40.73430
C         53.57852       72.17098       41.98884
O         53.40852       70.97851       42.19941
C         51.45095       72.96351       40.94129
C         50.89465       73.91015       39.87018
C         49.38711       74.11099       40.03611
C         48.84510       75.23898       39.14309
N         49.30169       76.55952       39.59175
H         52.64930       71.02540       39.53340
H         53.39579       73.75874       40.58567
H         51.26274       73.43636       41.92750
H         50.92988       71.98028       40.93495
H         51.09853       73.52974       38.84498
H         51.42743       74.87225       39.99238
H         49.13517       74.35043       41.09182
H         48.88884       73.15328       39.76862
H         47.73554       75.21763       39.20450
H         49.13546       75.06946       38.08227
H         48.84378       77.29607       39.00926
H         49.03124       76.71069       40.59141
H         50.33440       76.66697       39.48996
N         54.21464       72.92533       42.95369
C         54.45993       74.37817       42.95568
C         53.18249       75.19869       42.75371
O         53.06644       75.87472       41.74123
C         55.58325       74.79554       41.97434
C         56.94642       74.29527       42.36053
O         57.12895       73.52553       43.44965
O         57.91397       74.63451       41.69992
H         54.51981       72.42420       43.80317
H         54.85899       74.67556       43.95026
H         55.66025       75.90124       41.99954
H         55.36202       74.49407       40.93685
N         52.18606       75.26481       43.68050
C         52.27394       74.64567       44.99161
C         51.11404       75.02206       45.90760
O         50.16764       75.65394       45.45999
H         51.37238       75.85463       43.44886
H         53.19402       75.03399       45.47289
H         52.34225       73.54138       44.89510
N         51.12683       74.73063       47.24205
C         52.24735       74.07751       47.90999
C         53.21966       75.10487       48.45115
O         52.86515       76.26739       48.59705
C         51.78478       73.09356       49.00920
C         51.10485       73.75644       50.18473
O         51.65794       73.67560       51.41002
O         50.04376       74.34325       50.04800
H         50.35990       75.11482       47.81134
H         52.80308       73.47136       47.16591
H         52.68078       72.55805       49.39201
H         51.10021       72.33583       48.57177
N         54.49766       74.73296       48.73667
C         55.49613       75.63515       49.28243
C         55.89546       76.79607       48.38685
O         56.73052       77.56804       48.83725
H         54.77280       73.74947       48.58920
H         56.42066       75.05161       49.48925
H         55.12225       76.03509       50.24850
N         55.39155       76.99586       47.12944
C         55.82271       78.10149       46.27239
C         54.63701       78.99569       45.90660
O         53.50296       78.63463       46.19431
C         56.48589       77.52028       44.99107
C         57.56936       76.48285       45.31334
O         57.07030       78.55326       44.24536
H         54.70964       76.33413       46.73650
H         56.56916       78.72886       46.80559
H         55.69136       77.01838       44.38923
H         57.26327       78.18643       43.34377
H         58.37381       76.93851       45.92643
H         57.13889       75.61283       45.85230
H         58.01264       76.10288       44.36885
N         54.83463       80.17163       45.23686
C         53.74989       80.99820       44.69673
C         53.78240       81.01079       43.16275
O         52.86630       81.55163       42.56058
C         53.80125       82.45889       45.24968
C         55.07772       83.21177       44.78198
C         53.66765       82.46437       46.78078
C         55.08134       84.70472       45.11096
H         55.80445       80.47056       45.06359
H         52.76915       80.55573       44.98008
H         52.91954       82.99701       44.83357
H         55.13643       83.15207       43.68084
H         55.99088       82.74508       45.20682
H         53.60195       83.50052       47.17072
H         52.73705       81.94077       47.08435
H         54.53666       81.96042       47.25423
H         54.19377       85.19886       44.66106
H         55.09468       84.88310       46.20377
H         55.99413       85.16919       44.67922
N         54.82718       80.46556       42.47304
C         54.97414       80.45277       41.02672
C         55.16094       79.02375       40.55645
O         55.89354       78.27709       41.18786
C         56.18818       81.31811       40.58767
C         57.54604       80.90065       41.19493
O         55.92613       82.67760       40.83644
H         55.59959       80.04151       42.98796
H         54.08417       80.88977       40.52149
H         56.28982       81.21475       39.48501
H         56.19642       82.88407       41.76611
H         58.34647       81.55783       40.79613
H         57.54270       81.00192       42.30076
H         57.80450       79.85638       40.93001
N         54.57793       78.59222       39.40563
C         54.78981       77.24686       38.86680
C         56.27506       76.95865       38.60312
O         57.10994       77.83658       38.77630
C         53.93551       77.04007       37.58248
C         54.36512       77.94881       36.41820
O         52.58458       77.27288       37.89068
H         53.97199       79.25315       38.89783
H         54.43578       76.51544       39.62323
H         54.04928       75.98341       37.25299
H         52.04262       76.81604       37.19505
H         53.73260       77.74052       35.52965
H         54.25417       79.02248       36.67343
H         55.42172       77.75503       36.13846
N         56.65960       75.73517       38.14161
C         58.02822       75.38320       37.78187
C         58.49191       74.03828       38.35010
O         59.62633       73.67337       38.07109
C         58.13036       75.35557       36.24079
C         57.21429       74.29826       35.58361
C         57.35825       74.23812       34.05888
C         56.89098       75.52499       33.36024
N         57.00096       75.39358       31.90894
H         55.92943       75.05026       37.94746
H         58.73300       76.16513       38.14150
H         59.18452       75.15431       35.94938
H         57.86383       76.36801       35.87326
H         56.14954       74.49549       35.82222
H         57.47886       73.29578       35.98227
H         56.72992       73.39634       33.69454
H         58.41580       74.02037       33.79558
H         57.50824       76.38887       33.68393
H         55.83050       75.72864       33.63134
H         57.99753       75.22255       31.64102
H         56.40346       74.60389       31.57248
H         56.67667       76.28030       31.45998
N         57.69089       73.22189       39.10214
C         58.10351       71.87381       39.49207
C         58.29516       71.03686       38.24111
O         57.34491       70.85310       37.49220
C         57.05611       71.21091       40.43010
C         57.35634       69.73149       40.75780
C         58.69805       69.52078       41.40563
O         59.57033       68.91284       40.80589
O         58.94224       69.95241       42.65783
H         56.75537       73.54102       39.37565
H         59.05865       71.93756       40.05455
H         56.05608       71.24395       39.94644
H         56.99448       71.78959       41.37194
H         57.31686       69.15287       39.81002
H         56.56617       69.32128       41.42241
N         59.50830       70.48991       37.95861
C         59.72726       69.67249       36.78647
H         60.78350       69.33049       36.75643
H         59.06581       68.78047       36.81900
H         59.51493       70.26029       35.86842
H         60.30252       70.65223       38.59602
Ca        57.32305       70.75182       44.01293
O         60.11415       73.48737       45.24948
H         60.50243       73.73915       46.12480
H         60.10878       74.32901       44.72811
O         61.39786       70.46781       44.49176
H         61.45685       69.64753       45.04248
H         61.93227       70.26349       43.68335
O         60.55891       72.41119       42.41970
H         59.79051       72.96116       42.12993
H         61.08200       72.25821       41.59373
O         57.73997       72.45733       46.95639
H         58.57892       72.27399       47.44968
H         57.06664       72.61865       47.66397

Ca 1.0



