%chk=apoCaM-CA-Ng.loop4.water3.frame213.chk
%nprocshared=20
%mem=10GB
%nosave
#b3lyp/svp scf=(tight,noincore,xqc) Test 
#IOP(5/87=12) Density=Current Pop=(MK,readradii) iop(6/33=2) iop(6/42=6)

apoCaM-CA-Ng.loop4.water3.frame213 

   -3  1 
C         34.40651       37.64326       86.00609
C         35.73071       38.27607       86.30603
O         36.71754       37.55773       86.32076
H         33.58812       38.39164       86.00369
H         34.45169       37.16036       85.00642
H         34.18562       36.86891       86.77044
N         35.83539       39.62166       86.52549
C         37.09544       40.31121       86.78345
C         38.05452       40.08441       85.58708
O         39.38260       39.95231       85.97355
C         37.63445       40.04668       88.21912
C         37.97655       38.63588       88.60342
O         38.90604       38.05347       88.07586
O         37.29394       38.02817       89.59263
H         34.98298       40.19877       86.46663
H         36.89121       41.40654       86.81758
H         36.84681       40.39728       88.92199
H         38.53123       40.68090       88.39401
N         37.84139       41.10822       84.54056
C         38.48352       40.97034       83.20574
C         39.82537       41.69560       83.17575
O         39.87426       42.77124       82.59258
C         38.50263       39.52723       82.61839
C         39.12688       39.46256       81.19704
C         37.09362       38.90067       82.61217
C         38.39907       40.27820       80.12052
H         36.80698       41.15545       84.37802
H         37.83273       41.56680       82.52503
H         39.14605       38.90011       83.25901
H         39.14630       38.39999       80.87112
H         40.18078       39.81116       81.24239
H         36.38470       39.50370       82.00814
H         37.13184       37.86945       82.20086
H         36.68325       38.82768       83.63750
H         38.40431       41.36023       80.36086
H         38.92136       40.15138       79.14965
H         37.35336       39.93328       79.98948
N         40.94277       41.21567       83.79655
C         42.13578       42.04118       83.96773
C         43.04540       42.03958       82.73510
O         43.14002       43.09948       82.13109
C         42.83118       41.74383       85.31582
C         41.96319       42.05825       86.51525
O         42.45647       41.86731       87.75281
O         40.82882       42.49494       86.38786
H         40.90478       40.30665       84.27221
H         41.80211       43.09995       84.08607
H         43.74342       42.37247       85.39568
H         43.11477       40.67976       85.39113
N         43.75925       40.97429       82.25566
C         43.81087       39.64819       82.85346
C         44.69928       38.66787       82.07302
O         45.22095       39.04743       81.03423
H         44.31262       41.15356       81.40428
H         42.77672       39.25642       82.89042
H         44.23422       39.74703       83.85915
N         44.92428       37.36735       82.45492
C         44.42788       36.69126       83.65224
C         42.92552       36.85619       83.73628
O         42.44137       37.44860       84.69049
C         45.20891       37.16259       84.90350
C         44.88268       36.34507       86.12339
O         44.41471       36.94534       87.23291
O         45.06845       35.13833       86.12503
H         45.48696       36.78422       81.81478
H         44.66353       35.60757       83.55961
H         45.02386       38.22806       85.12626
H         46.29590       37.04169       84.70599
N         42.10174       36.45344       82.73025
C         42.48217       35.64077       81.59022
C         42.41008       36.43099       80.31246
O         41.43498       37.13417       80.09530
H         41.11747       36.73638       82.77484
H         41.76404       34.79591       81.53153
H         43.48488       35.18375       81.69963
N         43.40816       36.31766       79.38918
C         43.42723       37.03198       78.11692
C         42.21818       36.74997       77.21297
O         42.11709       37.41748       76.19227
C         44.75496       36.80709       77.32256
C         44.97943       35.41368       76.67376
C         45.53429       34.30752       77.54744
N         45.71964       33.07313       77.02410
O         45.86849       34.51595       78.70152
H         44.19736       35.71748       79.63246
H         43.39407       38.11534       78.37070
H         45.64372       37.10273       77.92139
H         44.70538       37.52404       76.47282
H         45.73761       35.54083       75.87022
H         44.03888       35.08366       76.18618
H         45.47726       32.87311       76.04418
H         46.11419       32.31308       77.59808
N         41.26025       35.81719       77.51045
C         40.07381       35.58709       76.67997
C         39.96522       34.14831       76.18864
O         39.10553       33.89590       75.35568
C         38.77637       35.97692       77.44335
C         38.75668       37.47330       77.77901
C         38.58247       35.14853       78.72348
H         41.35481       35.26016       78.36612
H         40.12827       36.21829       75.76560
H         37.90552       35.78281       76.77849
H         38.83029       38.07585       76.84955
H         37.80545       37.73764       78.28896
H         39.59909       37.74606       78.44410
H         38.55227       34.06236       78.49491
H         39.40426       35.33598       79.44007
H         37.62553       35.42280       79.21435
N         40.77079       33.15238       76.65785
C         40.71877       31.78175       76.16960
C         40.33795       30.80350       77.27163
O         39.44467       29.99763       77.04986
C         42.09698       31.40742       75.58835
C         42.47244       32.28986       74.42114
N         41.73150       32.29847       73.28859
O         43.46284       32.99964       74.49545
H         41.47840       33.35975       77.37303
H         39.97093       31.66609       75.35415
H         42.08819       30.35192       75.23919
H         42.86779       31.49929       76.38596
H         40.89899       31.69967       73.19481
H         41.99742       32.90216       72.49633
N         41.01263       30.77098       78.45654
C         40.89061       29.68480       79.42614
C         40.41590       30.13702       80.79919
O         40.95468       31.09205       81.34010
C         42.29146       29.06162       79.59513
C         42.78518       28.40984       78.33064
C         42.15524       27.25089       77.84863
C         43.88722       28.93420       77.63658
C         42.62587       26.62045       76.69494
C         44.35008       28.30787       76.47566
C         43.72644       27.14727       76.00410
O         44.19476       26.54514       74.89274
H         41.72821       31.48995       78.64096
H         40.20128       28.88995       79.06695
H         42.28970       28.28411       80.38511
H         42.99303       29.86226       79.92197
H         41.31003       26.82617       78.37637
H         44.38564       29.82852       77.98986
H         42.13736       25.72053       76.34318
H         45.19860       28.72191       75.94615
H         43.80059       25.73269       74.54422
N         39.51669       29.35720       81.48237
C         39.21598       29.47028       82.91291
C         38.41458       30.69969       83.30718
O         38.23445       30.90465       84.50031
C         40.50433       29.31313       83.76065
C         41.18347       27.95590       83.50067
C         42.44775       27.76862       84.29352
O         43.08032       26.73156       84.17557
O         42.90022       28.72718       85.12593
H         39.11251       28.54016       80.99948
H         38.56278       28.61473       83.19920
H         40.24246       29.35783       84.84070
H         41.21276       30.14064       83.55283
H         41.43959       27.86317       82.42853
H         40.47607       27.13876       83.76158
N         37.80237       31.49373       82.38547
C         36.93901       32.61301       82.75462
C         35.48002       32.33812       82.41137
O         34.65771       33.20034       82.69196
C         37.40654       33.87406       82.01686
C         38.82824       34.32559       82.36594
C         38.93123       34.93772       83.73197
O         38.84615       34.27221       84.75097
O         39.09309       36.26919       83.79124
H         37.90012       31.27395       81.38311
H         36.96043       32.79765       83.84984
H         36.71629       34.72529       82.21414
H         37.36600       33.65436       80.92823
H         39.06886       35.13666       81.64992
H         39.58013       33.52130       82.22272
N         35.07075       31.17282       81.82756
C         33.68594       30.89218       81.50229
H         33.00330       31.72204       81.78240
H         33.59367       30.71979       80.40984
H         33.36039       29.97776       82.04059
H         35.75164       30.43691       81.59591
Ca        39.47893       37.73937       85.43750
O         41.43152       35.21225       87.36437
H         42.17798       35.27124       86.71748
H         41.70465       34.49869       87.99428
O         38.43897       35.09404       87.81047
H         37.59835       35.31500       88.28442
H         38.42542       34.10794       87.72408
O         41.78418       38.82031       87.38854
H         41.27950       39.40132       88.01086
H         42.30597       38.22591       87.98180

Ca 1.0



