%chk=apoCaM-CA-Ng.loop1.water5.frame377.chk
%nprocshared=20
%mem=10GB
%nosave
#b3lyp/svp scf=(tight,noincore,xqc) Test 
#IOP(5/87=12) Density=Current Pop=(MK,readradii) iop(6/33=2) iop(6/42=6)

apoCaM-CA-Ng.loop1.water5.frame377 

   0  1 
C         14.98107      105.68206        4.25927
C         14.70921      104.22570        4.04325
O         15.45029      103.57393        3.32062
H         15.87955      106.00303        3.69152
H         14.10628      106.27698        3.92472
H         15.15651      105.86694        5.34066
N         13.65561      103.63732        4.67026
C         13.37263      102.21314        4.55309
C         12.89810      101.81292        3.14871
O         12.74855      100.62917        2.92435
C         12.33148      101.77299        5.61537
C         12.82381      101.95170        7.03288
O         12.95272      100.88012        7.83911
O         13.08925      103.05964        7.46999
H         13.07423      104.22114        5.29101
H         14.31028      101.65851        4.77569
H         12.11844      100.69426        5.48765
H         11.37936      102.33037        5.47852
N         12.61481      102.70402        2.15749
C         12.03190      102.28771        0.87470
C         13.08354      101.91423       -0.16506
O         14.00169      102.70564       -0.33111
C         11.21290      103.44612        0.27276
C          9.97942      103.79042        1.11562
C          9.17633      104.90806        0.43653
C          7.84436      105.21193        1.13810
N          8.02663      105.70361        2.50396
H         12.68232      103.71107        2.36232
H         11.32269      101.46391        1.04664
H         10.85275      103.13719       -0.73406
H         11.85830      104.34481        0.14826
H         10.29380      104.10660        2.13215
H          9.34168      102.88304        1.20092
H          8.93390      104.59074       -0.60178
H          9.79373      105.83153        0.38139
H          7.20889      104.29858        1.14894
H          7.31583      105.98939        0.54311
H          8.43421      104.95942        3.11321
H          8.64333      106.54810        2.50460
H          7.09258      105.96662        2.89308
N         12.99673      100.83793       -1.02163
C         12.00806       99.74927       -1.04634
C         10.56569      100.22329       -1.09503
O          9.84418      100.04097       -0.12445
C         12.30612       98.70782        0.05372
C         13.62378       98.02399       -0.21240
O         14.29716       98.29881       -1.34857
O         14.09419       97.24782        0.60369
H         13.71936      100.78794       -1.75754
H         12.14672       99.16996       -1.98094
H         11.52507       97.92126        0.07413
H         12.33006       99.20509        1.03674
N         10.01694      100.77206       -2.21472
C         10.71583      100.86996       -3.49282
C          9.83936      101.45233       -4.59414
O          8.72870      101.87923       -4.31172
H          9.02935      101.05980       -2.14872
H         11.01923       99.85218       -3.79486
H         11.62398      101.49967       -3.38159
N         10.25329      101.55278       -5.89138
C         11.52522      101.05844       -6.40809
C         11.57001       99.53248       -6.44018
O         12.44486       98.95675       -5.80965
C         11.85197      101.66042       -7.80578
C         10.90001      101.32633       -8.93125
O         11.30295      100.71080       -9.90534
O          9.61447      101.72656       -8.89538
H          9.61967      102.04636       -6.53457
H         12.33738      101.43516       -5.74639
H         12.86896      101.31047       -8.09157
H         11.89413      102.76715       -7.71749
N         10.68072       98.81304       -7.18710
C         10.73863       97.36778       -7.35057
C         10.32272       96.56733       -6.13425
O         10.33242       95.34843       -6.23781
H          9.95984       99.30855       -7.72678
H         11.76278       97.07459       -7.67304
H         10.03860       97.07943       -8.16412
N          9.95148       97.15037       -4.95783
C          9.56105       96.38803       -3.77708
C          8.24220       96.91932       -3.24510
O          8.16039       98.10811       -2.96178
C         10.63849       96.50888       -2.68021
C         12.02913       96.11781       -3.19892
O         10.28658       95.66876       -1.61272
H          9.97485       98.17303       -4.87138
H          9.47182       95.30471       -4.01616
H         10.66601       97.55993       -2.33254
H         10.95898       95.80799       -0.89778
H         12.02819       95.07218       -3.57115
H         12.34414       96.79955       -4.01414
H         12.77486       96.20547       -2.38197
N          7.17833       96.09368       -3.03620
C          5.94353       96.55902       -2.40759
C          6.07137       96.53676       -0.88067
O          5.19124       97.06704       -0.21948
C          4.72923       95.73087       -2.94600
C          4.62056       95.79120       -4.49613
C          3.38054       96.12365       -2.30966
C          4.38236       97.18968       -5.07775
H          7.28957       95.08478       -3.22357
H          5.78131       97.62526       -2.67629
H          4.90149       94.66339       -2.68150
H          3.78301       95.13456       -4.81932
H          5.54643       95.38121       -4.95214
H          3.36982       95.90718       -1.22359
H          3.15518       97.19883       -2.46282
H          2.56055       95.51538       -2.74758
H          5.22983       97.86779       -4.85139
H          4.29572       97.11553       -6.18202
H          3.44116       97.63211       -4.69310
N          7.14132       95.96462       -0.24762
C          7.28260       95.91646        1.20466
C          8.55786       96.61939        1.63751
O          9.63298       96.25512        1.18897
C          7.21867       94.45511        1.71413
C          8.32539       93.52921        1.18810
O          5.96939       93.91830        1.35979
H          7.87974       95.51854       -0.80383
H          6.42704       96.43067        1.69450
H          7.30477       94.50043        2.82697
H          5.71589       93.27184        2.06927
H          9.32979       93.87656        1.49987
H          8.18611       92.51404        1.61501
H          8.28888       93.44572        0.08270
N          8.50575       97.64604        2.53186
C          9.69906       98.34049        3.01817
C         10.65140       97.39094        3.75960
O         10.34763       96.21776        3.92946
C          9.31479       99.58477        3.88246
C          8.49591       99.26337        5.14203
O          8.66254      100.55794        3.10310
H          7.57863       97.93872        2.86775
H         10.25420       98.73205        2.14219
H         10.24535      100.06641        4.23230
H          7.81786      100.17321        2.75792
H          9.04030       98.54417        5.78851
H          8.32818      100.19691        5.72063
H          7.50211       98.84118        4.89102
N         11.84239       97.86348        4.22357
C         12.85454       97.09009        4.92399
C         14.19793       97.26529        4.20742
O         14.73997       96.28038        3.72780
C         12.86328       97.58240        6.38707
C         13.76794       96.84831        7.38600
C         13.45318       95.34961        7.49941
C         14.10788       94.74772        8.75192
N         13.87688       93.30565        8.82665
H         12.03644       98.85446        4.11092
H         12.57240       96.01443        4.92565
H         11.82162       97.48953        6.76963
H         13.12406       98.65951        6.41521
H         13.57289       97.32841        8.37139
H         14.84199       96.99310        7.14041
H         13.81619       94.83328        6.58459
H         12.35515       95.19690        7.58748
H         13.66651       95.23438        9.65214
H         15.20223       94.94395        8.75075
H         14.26265       92.94377        9.72882
H         12.85287       93.09565        8.78904
H         14.36522       92.82876        8.03442
N         14.77797       98.50165        4.08454
C         16.03300       98.77492        3.37733
C         17.06872       99.27215        4.35869
O         16.84295      100.28392        5.00897
C         15.81482       99.84770        2.27448
C         17.08994      100.39522        1.57814
C         17.94000       99.36348        0.88142
O         18.47875       98.47197        1.51143
O         18.10567       99.40712       -0.45050
H         14.30925       99.30271        4.52790
H         16.40893       97.85373        2.88395
H         15.33221      100.73197        2.73423
H         15.11909       99.45155        1.51125
H         17.72598      100.92570        2.31788
H         16.75721      101.15093        0.83156
N         18.26238       98.62521        4.46901
C         19.34951       99.08688        5.30329
H         20.22769       99.30649        4.65865
H         19.09117      100.00944        5.86293
H         19.62185       98.29046        6.02446
H         18.43254       97.77647        3.90975
Ca        16.50336       98.23173       -1.43125
O         19.20153       99.80966       -3.34627
H         19.50578      100.42132       -2.62951
H         19.96672       99.19803       -3.49053
O         15.85409       95.45333       -2.88506
H         16.22338       94.68219       -3.38409
H         15.21690       95.05424       -2.24115
O         18.25354       95.76649       -0.83467
H         17.40672       95.78571       -0.32137
H         18.73248       96.58642       -0.55461
O         18.43210       96.81072       -4.32896
H         19.23519       96.23802       -4.24165
H         18.04174       96.55978       -5.20368
O         14.96243       97.78185       -4.46727
H         15.06610       98.53176       -5.10477
H         14.61049       97.03612       -5.01576

Ca 1.0



