%chk=apoCaM-CA-Ng.loop4.water6.frame1043.chk
%nprocshared=20
%mem=10GB
%nosave
#b3lyp/svp scf=(tight,noincore,xqc) Test 
#IOP(5/87=12) Density=Current Pop=(MK,readradii) iop(6/33=2) iop(6/42=6)

apoCaM-CA-Ng.loop4.water6.frame1043 

   -3  1 
C         47.76887       62.84199       56.09328
C         48.66466       62.35774       54.98666
O         48.16499       61.70226       54.08962
H         46.72252       62.50767       55.92184
H         48.10927       62.43350       57.06683
H         47.77538       63.95221       56.12293
N         49.99464       62.64856       54.92389
C         50.70866       63.46873       55.89567
C         51.09740       64.80991       55.29554
O         51.64114       65.63145       56.02113
C         51.97526       62.73423       56.37204
C         51.66341       61.39069       56.95879
O         52.13817       60.38238       56.46085
O         50.86909       61.29166       58.04030
H         50.52409       62.30000       54.10817
H         50.06700       63.68789       56.77342
H         52.49863       63.34274       57.14036
H         52.66487       62.60238       55.50922
N         50.84972       65.11080       53.98560
C         51.19598       66.38851       53.37729
C         52.67592       66.69948       53.56902
O         52.95840       67.74853       54.13262
C         50.69782       66.49021       51.89121
C         51.28338       65.40182       50.94545
C         49.15192       66.47993       51.87778
C         50.81380       65.51324       49.49267
H         50.38810       64.41270       53.39357
H         50.64548       67.18815       53.92555
H         51.00991       67.48609       51.50518
H         51.01878       64.38636       51.30222
H         52.38430       65.49618       50.91651
H         48.75292       66.69230       50.86625
H         48.74373       65.50720       52.22250
H         48.75747       67.28152       52.53826
H         51.07426       66.50860       49.07666
H         51.31461       64.73049       48.88417
H         49.72161       65.34367       49.40229
N         53.66949       65.84085       53.18605
C         55.08874       66.13570       53.39584
C         55.73610       65.03496       54.24875
O         55.09190       64.03174       54.52534
C         55.75255       66.28794       52.00564
C         57.05062       67.05808       51.95550
O         57.52184       67.73044       53.02210
O         57.63394       67.16461       50.88916
H         53.42037       64.94936       52.73654
H         55.18323       67.10072       53.93733
H         55.06489       66.86467       51.34817
H         55.87781       65.27966       51.55640
N         57.00064       65.17448       54.73704
C         57.67405       64.18991       55.56671
C         58.01873       62.93336       54.80737
O         57.66332       61.85218       55.25460
H         57.51532       66.04155       54.56447
H         57.06479       63.96620       56.47028
H         58.63820       64.62357       55.91062
N         58.73325       63.00830       53.64817
C         59.19016       61.83850       52.89915
C         58.34182       61.65664       51.64582
O         57.62788       62.58141       51.28580
C         60.67990       62.05292       52.52337
C         61.56405       62.15954       53.73111
O         62.20663       63.17742       53.93422
O         61.68006       61.11802       54.57646
H         58.95474       63.94339       53.27072
H         59.06258       60.92326       53.51654
H         60.76301       62.98260       51.91596
H         61.08750       61.24152       51.90264
N         58.32525       60.49994       50.91439
C         59.05130       59.28893       51.27497
C         58.96162       58.24659       50.18067
O         59.30373       58.59370       49.05918
H         57.73344       60.48117       50.06834
H         58.67932       58.93709       52.24918
H         60.12597       59.49835       51.36358
N         58.56838       56.94888       50.36041
C         58.17187       56.29152       51.60215
C         56.90234       56.91552       52.15146
O         56.87552       57.37468       53.28488
C         59.33012       56.20333       52.63396
C         60.64376       55.63633       52.06548
C         60.50694       54.24620       51.49931
N         60.83819       53.99148       50.21108
O         60.11296       53.33730       52.21462
H         58.56015       56.34887       49.51973
H         57.91269       55.23834       51.34887
H         58.99470       55.56630       53.48216
H         59.57471       57.19295       53.05898
H         61.39174       55.60325       52.88670
H         61.03261       56.33042       51.28949
H         61.18570       54.74106       49.59484
H         60.75861       53.03780       49.82830
N         55.79285       56.94773       51.36251
C         54.51856       57.54400       51.75635
C         54.15745       58.66685       50.79413
O         54.89077       58.90624       49.84418
C         53.39935       56.45538       51.80168
C         53.68339       55.42316       52.89945
C         53.18732       55.74279       50.45242
H         55.86155       56.53500       50.41992
H         54.59167       57.99989       52.76812
H         52.44046       56.94273       52.07483
H         53.77111       55.93075       53.88279
H         52.84618       54.69504       52.96486
H         54.62358       54.86941       52.69517
H         54.08517       55.16545       50.14995
H         52.34002       55.02859       50.52787
H         52.94471       56.47497       49.65542
N         53.00260       59.37357       50.96774
C         52.52969       60.37688       50.01826
C         51.31924       59.85908       49.24115
O         50.86154       60.55414       48.34378
C         52.14599       61.66898       50.76437
C         53.23335       62.17294       51.67758
N         54.43719       62.55117       51.19600
O         53.01676       62.24461       52.87773
H         52.40006       59.15377       51.77468
H         53.32469       60.60078       49.27368
H         51.24430       61.46120       51.38405
H         51.88259       62.46012       50.03035
H         54.64574       62.50506       50.18888
H         55.16104       62.89622       51.84239
N         50.73505       58.66117       49.54653
C         49.57256       58.10044       48.86189
C         49.02929       56.94377       49.69287
O         49.81321       56.12247       50.15275
C         49.90208       57.70955       47.39556
C         50.83039       56.52726       47.23369
C         50.36493       55.22419       47.48622
C         52.15186       56.70480       46.79170
C         51.20695       54.12404       47.32387
C         52.99619       55.59998       46.63147
C         52.52514       54.30565       46.89979
O         53.32464       53.23103       46.74851
H         51.10608       58.12759       50.34086
H         48.78406       58.88504       48.81784
H         50.33393       58.59925       46.89152
H         48.96348       57.47757       46.84663
H         49.34263       55.05514       47.79989
H         52.53195       57.69608       46.57857
H         50.83004       53.12890       47.52439
H         54.01466       55.75034       46.29741
H         54.24291       53.30951       46.45445
N         47.70041       56.83376       49.96065
C         47.16168       55.84246       50.88633
C         46.29320       56.58889       51.88186
O         45.09449       56.35370       51.95427
C         46.41334       54.75417       50.09139
C         45.99466       53.57355       50.98477
C         45.31170       52.50397       50.18518
O         44.04811       52.14508       50.48143
O         45.90113       51.94308       49.27496
H         47.04373       57.48895       49.50708
H         47.98350       55.33549       51.43888
H         47.10864       54.36120       49.31595
H         45.53238       55.19444       49.57390
H         45.30629       53.91499       51.78394
H         46.89503       53.13531       51.46817
N         46.83905       57.60799       52.60141
C         46.02704       58.56958       53.32842
C         45.84264       59.77253       52.42456
O         44.70461       60.11729       52.13405
C         46.61139       58.92461       54.71753
C         46.53643       57.73232       55.68992
C         46.69692       58.15633       57.13210
O         47.86557       58.59264       57.64284
O         45.73126       58.08853       57.87622
H         47.83911       57.82002       52.46493
H         45.00350       58.17051       53.51286
H         45.96174       59.72932       55.12950
H         47.64770       59.31407       54.65320
H         47.26239       56.93627       55.41927
H         45.51463       57.30192       55.60368
N         46.90793       60.41381       51.87076
C         46.73716       61.49322       50.92201
H         46.19045       62.33600       51.39428
H         47.72753       61.85257       50.57135
H         46.16443       61.13003       50.04016
H         47.86625       60.10691       52.09273
Ca        49.89687       58.50833       56.68697
O         50.40259       57.82499       53.90988
H         49.47627       57.75474       54.25032
H         50.85446       57.02216       54.27211
O         53.80701       58.98102       58.70466
H         54.53375       59.07613       58.03896
H         54.24525       58.57363       59.49336
O         52.90604       57.10121       56.30770
H         53.84401       57.36777       56.13580
H         52.95094       56.12486       56.46597
O         50.58684       55.51635       58.09963
H         50.50033       54.69912       57.54719
H         49.74962       55.55006       58.62722
O         51.54254       57.57137       60.47124
H         52.40025       57.16025       60.74595
H         50.87220       57.18245       61.08747
O         49.44845       59.77665       60.14714
H         49.37345       60.70502       60.48297
H         48.53418       59.40683       60.23133

Ca 1.0



