%chk=apoCaM-CA-Ng.loop3.water3.frame633.chk
%nprocshared=20
%mem=10GB
%nosave
#b3lyp/svp scf=(tight,noincore,xqc) Test 
#IOP(5/87=12) Density=Current Pop=(MK,readradii) iop(6/33=2) iop(6/42=6)

apoCaM-CA-Ng.loop3.water3.frame633 

   0  1 
C         -1.73724       48.32657       -1.22775
C         -1.21630       49.67417       -1.63183
O         -1.98033       50.50742       -2.09623
H         -2.82601       48.24211       -1.42477
H         -1.20025       47.53170       -1.78589
H         -1.56183       48.18123       -0.13911
N          0.09903       49.95781       -1.44726
C          0.69312       51.26661       -1.69554
C          0.60277       51.65077       -3.16399
O          1.13304       50.93522       -4.00268
C          2.15327       51.23276       -1.20653
C          2.81943       52.56291       -1.05852
O          3.90215       52.60397       -0.49636
O          2.23597       53.72225       -1.41477
H          0.69105       49.21082       -1.04877
H          0.14959       52.00519       -1.06624
H          2.77050       50.55883       -1.83899
H          2.13802       50.81684       -0.17449
N         -0.06943       52.77708       -3.54414
C         -0.22273       53.20255       -4.93880
C          1.05059       53.81130       -5.54548
O          0.97531       54.33137       -6.65068
C         -1.41937       54.17563       -5.08276
C         -2.73857       53.51166       -4.63970
C         -3.95820       54.35154       -5.04297
C         -5.29295       53.75589       -4.55589
N         -5.54414       52.41098       -5.08124
H         -0.54009       53.32715       -2.80948
H         -0.49949       52.32347       -5.56148
H         -1.51788       54.43070       -6.16125
H         -1.25308       55.11790       -4.51635
H         -2.73301       53.35812       -3.53969
H         -2.81902       52.52342       -5.13916
H         -3.98439       54.44389       -6.15164
H         -3.86051       55.37064       -4.61077
H         -6.11085       54.43091       -4.89308
H         -5.30795       53.72798       -3.44425
H         -4.85912       51.72639       -4.68926
H         -6.50036       52.10643       -4.78734
H         -5.49640       52.41069       -6.12587
N          2.26007       53.74240       -4.92038
C          3.50699       54.24710       -5.49275
C          4.68061       53.39151       -5.01406
O          5.38537       52.84602       -5.85157
C          3.63152       55.77693       -5.30159
C          3.47776       56.28279       -3.89149
O          4.37969       55.98440       -2.94583
O          2.55389       57.02991       -3.61306
H          2.31991       53.24091       -4.03129
H          3.49241       54.09346       -6.59720
H          2.82325       56.24504       -5.90619
H          4.59944       56.12926       -5.71807
N          4.86139       53.12184       -3.69190
C          5.79107       52.12228       -3.18503
C          6.66260       52.63406       -2.06391
O          7.34062       51.81532       -1.45426
H          4.23232       53.55458       -3.01100
H          6.42634       51.68457       -3.98511
H          5.17410       51.30042       -2.76336
N          6.72813       53.95646       -1.74078
C          7.57256       54.49110       -0.67897
C          6.73911       55.42467        0.21988
O          5.57772       55.65277       -0.08931
C          8.76404       55.17725       -1.39492
C         10.05092       55.26117       -0.60568
N         11.13084       54.53568       -0.99237
O         10.14064       55.99257        0.36513
H          6.22976       54.63502       -2.32813
H          7.97224       53.64807       -0.07168
H          8.46394       56.16301       -1.81020
H          9.00601       54.53565       -2.27189
H         11.09158       53.91374       -1.81457
H         12.01549       54.58764       -0.46735
N          7.24723       56.00840        1.33911
C          6.51338       56.95015        2.18394
C          5.34918       56.31239        2.91354
O          5.50692       55.19936        3.39546
H          8.21250       55.79762        1.61535
H          6.18882       57.83734        1.59640
H          7.21089       57.31413        2.96741
N          4.18209       57.00196        3.12964
C          3.04856       56.43625        3.87300
C          2.27581       55.39250        3.00684
O          3.17254       54.60504        2.28857
C          2.06391       57.55542        4.32375
C          2.58385       58.49284        5.38947
C          2.59360       59.88029        5.17161
C          2.98344       57.99623        6.64515
C          2.98720       60.75451        6.19082
C          3.38133       58.87222        7.66064
C          3.37795       60.25620        7.43809
O          3.73524       61.11471        8.41515
H          4.12874       57.98252        2.81331
H          3.43904       55.92479        4.78026
H          1.16238       57.12685        4.79304
H          1.71910       58.11493        3.42755
H          2.27149       60.28928        4.22268
H          2.96871       56.93323        6.84953
H          2.97298       61.82281        6.01573
H          3.67667       58.47549        8.62448
H          3.99165       60.81329        9.29866
N          1.38907       54.55062        3.84812
C          0.52482       53.52482        3.21059
C         -0.03576       53.92300        1.85338
O          0.72754       54.01833        0.91421
C          1.24589       52.14391        3.12779
C          0.36626       51.03512        2.47308
C          1.73066       51.69525        4.51824
C         -0.96121       50.74088        3.18259
H          0.75378       55.15520        4.40603
H         -0.33686       53.37152        3.89799
H          2.14671       52.24720        2.48439
H          0.95275       50.09205        2.42484
H          0.13338       51.31920        1.42564
H          0.88322       51.59909        5.22852
H          2.25076       50.71614        4.44676
H          2.45004       52.42949        4.93687
H         -1.50068       49.94211        2.63132
H         -0.79511       50.39046        4.22081
H         -1.61821       51.63270        3.19728
N         -1.37908       54.03689        1.64737
C         -1.95506       54.16201        0.30843
C         -2.88254       55.35356        0.13276
O         -3.38498       55.52017       -0.97199
C         -2.71956       52.86578        0.00609
O         -3.77808       52.70529        0.91512
H         -2.01772       53.91614        2.44746
H         -1.15478       54.25922       -0.45598
H         -1.99886       52.02008        0.09237
H         -3.12319       52.87902       -1.02890
H         -3.86065       51.73346        1.09760
N         -3.20700       56.19665        1.15452
C         -4.21147       57.24608        0.99028
C         -3.75516       58.34503        0.03961
O         -2.56902       58.40572       -0.25361
C         -4.51834       57.87726        2.35200
H         -2.79672       56.04278        2.08697
H         -5.12451       56.75169        0.59667
H         -4.88852       57.09977        3.05330
H         -3.60047       58.33480        2.77982
H         -5.28189       58.67097        2.26109
N         -4.60214       59.29077       -0.47535
C         -6.06254       59.30354       -0.36518
C         -6.53972       60.54509        0.37471
O         -6.00067       61.61060        0.10953
C         -6.64997       59.29468       -1.77575
H         -4.17828       60.03826       -1.04908
H         -6.42870       58.39707        0.13744
H         -7.75421       59.27649       -1.72361
H         -6.33386       60.19690       -2.34298
H         -6.31263       58.38919       -2.32269
N         -7.52212       60.53505        1.32893
C         -8.37707       59.40268        1.68251
C         -7.87733       58.77509        2.96310
O         -7.59893       57.58390        2.96151
C         -9.84522       59.85970        1.86576
C        -10.49871       60.46233        0.61103
C        -10.65715       59.46451       -0.50094
O        -10.18437       59.69138       -1.60204
O        -11.36284       58.33473       -0.30115
H         -7.70098       61.42197        1.82686
H         -8.38139       58.62773        0.88976
H         -9.88916       60.62684        2.66879
H        -10.46074       58.99409        2.19933
H         -9.91694       61.34439        0.26565
H        -11.51686       60.81150        0.88749
N         -7.71980       59.52152        4.09271
C         -7.20513       58.98651        5.33672
H         -6.27475       59.52849        5.60788
H         -7.95571       59.13382        6.14030
H         -6.96790       57.90394        5.26854
H         -7.95490       60.52469        4.07355
Ca         2.83997       55.23860        0.11361
O          3.87296       58.10589       -0.25440
H          4.07692       58.51796       -1.13106
H          3.78766       58.87039        0.36855
O          0.10413       56.15553       -1.90183
H          0.46931       55.69266       -2.69653
H         -0.84576       56.32005       -2.12634
O          0.86094       57.52338        0.80669
H         -0.05488       57.55387        1.18136
H          0.84120       58.15554        0.04488

Ca 1.0



