%chk=apoCaM-CA-Ng.loop3.water5.frame324.chk
%nprocshared=20
%mem=10GB
%nosave
#b3lyp/svp scf=(tight,noincore,xqc) Test 
#IOP(5/87=12) Density=Current Pop=(MK,readradii) iop(6/33=2) iop(6/42=6)

apoCaM-CA-Ng.loop3.water5.frame324 

   0  1 
C         54.90517       54.80617       41.27189
C         55.45653       54.50400       39.90990
O         54.83810       53.75414       39.16986
H         53.94499       54.27296       41.43897
H         55.63244       54.48437       42.04731
H         54.73001       55.89820       41.36847
N         56.63841       55.06626       39.52119
C         57.29679       54.88289       38.22550
C         57.88208       53.48024       38.01402
O         58.57702       53.29478       37.02380
C         56.35322       55.32562       37.08077
C         57.04155       55.40471       35.74677
O         56.64856       54.72979       34.80897
O         58.08470       56.23817       35.57429
H         57.09958       55.70795       40.18503
H         58.17267       55.57023       38.22517
H         55.95883       56.33864       37.31138
H         55.49239       54.63091       37.00783
N         57.66952       52.45330       38.88731
C         58.23425       51.11406       38.73296
C         57.17053       50.08798       38.35865
O         57.52396       48.93232       38.17155
C         58.99205       50.69225       40.02421
C         58.14261       50.77449       41.31304
C         58.89560       50.21643       42.53085
C         58.11198       50.37200       43.85019
N         57.98230       51.77302       44.26329
H         57.05213       52.60373       39.68949
H         58.96509       51.09235       37.89490
H         59.87758       51.35143       40.15705
H         59.36594       49.65325       39.88957
H         57.19750       50.20231       41.18921
H         57.90316       51.83704       41.50303
H         59.88289       50.71472       42.64123
H         59.07109       49.13243       42.35545
H         58.66735       49.82677       44.64517
H         57.10531       49.90673       43.75937
H         58.92870       52.21057       44.34996
H         57.39951       52.31668       43.58930
H         57.51364       51.81074       45.19726
N         55.85436       50.42392       38.22192
C         54.81988       49.44471       37.89867
C         54.96431       48.92985       36.46424
O         55.72070       49.50798       35.69441
C         53.44485       50.11259       38.12823
C         52.28358       49.17261       38.07833
O         52.22131       48.22983       38.85058
O         51.27167       49.40466       37.22690
H         55.56404       51.39324       38.40252
H         54.92942       48.60258       38.61733
H         53.30485       50.93803       37.39480
H         53.43769       50.56017       39.14634
N         54.28274       47.82223       36.04112
C         54.34789       47.32477       34.66991
C         53.51566       48.14806       33.69724
O         53.60234       47.90608       32.50239
H         53.73023       47.28630       36.72417
H         53.95460       46.28734       34.62660
H         55.41210       47.29075       34.34806
N         52.67263       49.12084       34.14139
C         51.88462       50.00852       33.29627
C         52.32045       51.45074       33.53199
O         51.68999       52.35218       32.99499
C         50.39291       49.88964       33.69214
C         49.79041       48.53373       33.43453
N         49.64639       48.06750       32.17340
O         49.38869       47.86433       34.37367
H         52.58782       49.27639       35.15219
H         52.00728       49.77624       32.21562
H         49.79607       50.63043       33.12581
H         50.29071       50.13473       34.77224
H         49.94785       48.63016       31.36520
H         49.20543       47.15087       32.00468
N         53.36316       51.75440       34.36282
C         53.68930       53.10221       34.77393
C         52.66576       53.67913       35.73598
O         52.85413       54.81554       36.14488
H         53.95310       51.01402       34.75698
H         53.81695       53.74908       33.87958
H         54.65319       53.07619       35.32452
N         51.56635       52.97572       36.15118
C         50.57873       53.52096       37.07081
C         49.33847       52.64737       37.07716
O         49.40791       51.48813       37.45923
C         51.17011       53.65789       38.49035
C         50.18129       54.22747       39.48031
C         49.58313       55.47812       39.25025
C         49.85829       53.51903       40.65064
C         48.67729       56.00902       40.17087
C         48.95967       54.05824       41.57655
C         48.36638       55.30659       41.33857
O         47.50169       55.84181       42.22348
H         51.39638       52.03055       35.78736
H         50.28601       54.52196       36.68899
H         52.04889       54.33278       38.46358
H         51.52720       52.65994       38.83156
H         49.81423       56.04441       38.35788
H         50.30849       52.55508       40.85434
H         48.22146       56.97162       39.97757
H         48.72775       53.50687       42.47907
H         47.27047       55.39668       43.05097
N         48.16423       53.15594       36.61734
C         46.95145       52.37053       36.47087
C         46.93234       51.78229       35.07458
O         46.67572       50.59546       34.93811
C         45.68902       53.24388       36.73570
C         45.76626       54.03232       38.07110
C         44.40350       52.38984       36.68593
C         45.95066       53.17375       39.32517
H         48.15548       54.12027       36.25144
H         46.93550       51.53684       37.20916
H         45.61375       54.00814       35.92977
H         44.83801       54.63459       38.18443
H         46.61295       54.74968       38.02417
H         44.28962       51.88627       35.70634
H         44.41155       51.59922       37.46393
H         43.50921       53.03154       36.83597
H         45.98244       53.83593       40.21543
H         45.11023       52.46367       39.45725
H         46.90808       52.61466       39.28303
N         47.23383       52.54830       33.98387
C         47.18147       52.01643       32.62866
C         45.75277       51.90387       32.13345
O         45.55686       51.31594       31.07917
C         48.03545       52.85652       31.66892
O         47.55748       54.17180       31.60632
H         47.53061       53.52518       34.12230
H         47.62443       50.99684       32.63366
H         48.01492       52.40171       30.65348
H         49.08445       52.84697       32.04440
H         48.27657       54.70390       31.17634
N         44.69927       52.40853       32.84939
C         43.30372       52.22105       32.47973
C         42.97865       50.73606       32.39914
O         42.09655       50.35176       31.64358
C         42.98577       52.96631       31.17490
H         44.87115       52.91929       33.72516
H         42.66558       52.67309       33.27267
H         43.55287       52.55004       30.31766
H         41.90212       52.89260       30.94532
H         43.24567       54.04076       31.28425
N         43.66324       49.84043       33.17036
C         43.50940       48.40088       33.06722
C         42.76240       47.88256       34.26549
O         43.17236       48.12872       35.39142
C         44.88440       47.73148       32.96987
H         44.34431       50.18650       33.86123
H         42.94939       48.13306       32.14433
H         45.43091       48.09813       32.07582
H         45.49368       47.94826       33.87410
H         44.76315       46.62947       32.88378
N         41.64017       47.13524       34.07417
C         40.82214       46.57153       35.13500
C         40.18513       47.68656       35.94363
O         40.32213       47.72323       37.15959
C         41.62606       45.57420       36.01175
C         42.39534       44.51167       35.20782
C         41.49871       43.67230       34.34580
O         41.66334       43.64427       33.13643
O         40.51893       42.93576       34.90243
H         41.33736       46.93862       33.10754
H         39.99437       46.00626       34.65106
H         40.92696       45.07441       36.71746
H         42.37499       46.12268       36.62117
H         42.93026       43.84604       35.91855
H         43.16256       45.01183       34.57646
N         39.47142       48.65535       35.30739
C         38.85141       49.74923       36.02159
H         38.09044       49.35579       36.72804
H         39.62086       50.32103       36.58321
H         38.35331       50.43561       35.30426
H         39.37649       48.62545       34.28049
Ca        49.43592       48.11252       37.30140
O         49.90606       46.29345       39.68601
H         50.09987       45.42564       39.25065
H         49.13006       46.11081       40.27291
O         46.61033       48.65002       36.97678
H         45.82205       48.12256       37.25645
H         46.88936       48.24327       36.11771
O         51.38563       46.04664       36.53103
H         51.65215       45.90500       35.58851
H         51.80630       45.30061       37.02722
O         48.22365       45.49739       36.54471
H         47.27525       45.77745       36.50049
H         48.25652       44.84859       37.29162
O         48.60360       49.68326       39.78384
H         48.99453       49.08251       40.46692
H         47.64094       49.72758       40.01077

Ca 1.0



