%chk=apoCaM-CA-Ng.loop2.water3.frame576.chk
%nprocshared=20
%mem=10GB
%nosave
#b3lyp/svp scf=(tight,noincore,xqc) Test 
#IOP(5/87=12) Density=Current Pop=(MK,readradii) iop(6/33=2) iop(6/42=6)

apoCaM-CA-Ng.loop2.water3.frame576 

   -2  1 
C         65.95342       11.64451       84.10166
C         65.12025       11.87964       85.32601
O         65.67610       12.09957       86.39333
H         67.03625       11.69220       84.34741
H         65.72812       10.64078       83.68393
H         65.72512       12.41880       83.34004
N         63.76023       11.83088       85.24753
C         62.90182       12.03288       86.41159
C         63.03475       13.45543       86.93283
O         63.42851       14.33316       86.17660
C         61.43513       11.72504       86.04145
C         60.50934       11.78307       87.22359
O         59.57646       12.57003       87.23623
O         60.69690       10.95499       88.26927
H         63.33172       11.61223       84.33405
H         63.23130       11.31347       87.19453
H         61.37561       10.69834       85.61987
H         61.09759       12.43994       85.25756
N         62.72625       13.75341       88.22960
C         62.82900       15.10692       88.77812
C         64.27894       15.61411       88.70910
O         65.14127       14.80648       88.39009
C         62.29058       15.10369       90.21620
H         62.39924       12.98954       88.84047
H         62.17034       15.73785       88.16076
H         62.23314       16.10951       90.65734
H         61.25403       14.70390       90.22221
H         62.92468       14.46180       90.86367
N         64.68640       16.90200       88.95329
C         63.86332       18.04691       89.35632
C         62.73727       18.36288       88.38177
O         62.71941       17.85088       87.27193
C         64.75745       19.28946       89.61111
C         65.65543       19.63662       88.45066
O         66.99388       19.60611       88.60279
O         65.18594       19.93663       87.36988
H         65.70000       17.06876       88.85153
H         63.39437       17.81204       90.32623
H         65.41311       19.06825       90.48077
H         64.13484       20.17065       89.87601
N         61.71380       19.17915       88.77435
C         60.53654       19.42401       87.95262
C         59.71722       18.15510       87.74733
O         60.05534       17.13009       88.32053
H         61.75202       19.62223       89.70491
H         60.86217       19.83938       86.97742
H         59.88702       20.17275       88.45618
N         58.62443       18.10688       86.93157
C         58.12382       19.23280       86.15658
C         58.72155       19.23186       84.75164
O         58.46291       20.16959       84.00946
C         56.57922       19.14465       86.10551
C         55.91573       20.37268       85.53689
N         55.98102       21.55383       86.19435
O         55.28564       20.29360       84.49285
H         58.16655       17.19020       86.79795
H         58.41247       20.17942       86.65867
H         56.17349       19.00068       87.13020
H         56.30100       18.24935       85.50412
H         56.48103       21.62892       87.09228
H         55.50823       22.38950       85.81959
N         59.52425       18.21426       84.30626
C         60.08056       18.17751       82.96362
C         61.13691       19.23153       82.70119
O         61.56025       19.33406       81.55881
H         59.71544       17.40046       84.90682
H         59.24803       18.29525       82.23628
H         60.55181       17.18724       82.78262
N         61.61899       20.04855       83.68315
C         62.58132       21.11797       83.41609
C         63.90933       20.57889       82.86968
O         64.15395       19.38222       82.93954
C         62.76764       22.01184       84.67700
C         61.46038       22.74574       85.01575
O         63.14315       21.25428       85.79789
H         61.26824       19.93083       84.64211
H         62.15016       21.75589       82.61333
H         63.53693       22.79092       84.48361
H         63.86961       20.64779       85.51244
H         61.14797       23.38707       84.16469
H         60.63591       22.03672       85.24293
H         61.60477       23.39261       85.90680
N         64.75397       21.41725       82.19243
C         65.92602       20.96726       81.43326
C         67.17404       21.74648       81.84246
O         67.16724       22.96718       81.76580
C         65.64845       21.15161       79.90617
C         66.89434       20.77702       79.05274
C         64.42707       20.30505       79.48717
C         66.72352       21.05086       77.55669
H         64.48851       22.41084       82.11134
H         66.10716       19.88464       81.59750
H         65.41267       22.22359       79.72211
H         67.15847       19.70817       79.20397
H         67.75863       21.39468       79.37446
H         63.52953       20.58402       80.07470
H         64.16076       20.47282       78.42522
H         64.63161       19.22273       79.63988
H         67.67689       20.82941       77.03194
H         65.93972       20.40929       77.10786
H         66.46922       22.11949       77.38943
N         68.30779       21.08124       82.22006
C         69.57693       21.70627       82.54979
C         70.71961       21.21468       81.64701
O         71.82799       21.68992       81.85666
C         69.96925       21.39663       84.01514
C         68.95793       21.84247       85.03939
O         69.22352       22.78307       85.77132
O         67.79279       21.18155       85.22213
H         68.29187       20.06629       82.26604
H         69.49984       22.81070       82.43605
H         70.91950       21.94210       84.21614
H         70.16819       20.31315       84.15699
N         70.56167       20.29246       80.63848
C         71.68767       19.82159       79.82450
C         71.72426       18.28374       79.74753
O         71.63466       17.75336       78.64743
C         71.58550       20.44669       78.40943
C         72.79350       20.24250       77.49829
C         72.69313       20.67910       76.16516
C         74.00927       19.65346       77.92145
C         73.76560       20.52876       75.27938
C         75.08053       19.51537       77.03366
C         74.95889       19.95013       75.71411
H         69.62452       19.93516       80.40620
H         72.63987       20.18184       80.26409
H         71.44123       21.54444       78.50794
H         70.67716       20.03271       77.91675
H         71.77682       21.13213       75.80792
H         74.15795       19.30358       78.93165
H         73.67233       20.86338       74.25445
H         76.00860       19.07098       77.37133
H         75.79024       19.83934       75.02947
N         71.88087       17.48023       80.84565
C         71.98146       16.02238       80.77894
C         70.83468       15.34122       80.05154
O         71.02922       14.25306       79.52810
C         71.96533       15.59924       82.25023
C         72.67255       16.75885       82.91246
C         72.04845       17.95869       82.19986
H         72.94901       15.77649       80.28481
H         70.91682       15.61425       82.62987
H         72.39743       14.59313       82.44181
H         72.60409       16.78893       84.02010
H         73.74649       16.69573       82.62062
H         71.04659       18.21743       82.60807
H         72.74515       18.81921       82.28128
N         69.59964       15.91412       80.01450
C         68.45912       15.32036       79.33166
C         68.76056       15.24320       77.84874
O         68.72110       14.15544       77.29112
C         67.12604       16.09213       79.55467
C         66.59599       16.08156       81.01377
C         67.16416       17.14446       81.91110
O         66.77585       17.23893       83.19883
O         67.89225       18.00185       81.45727
H         69.49281       16.81214       80.48080
H         68.29214       14.29378       79.72930
H         66.36743       15.53753       78.95959
H         67.15426       17.12831       79.15009
H         66.72821       15.07093       81.45371
H         65.50724       16.30237       80.98526
N         69.10533       16.36738       77.15808
C         69.44798       16.36962       75.75030
H         70.49912       16.70819       75.63070
H         69.35029       15.36494       75.28796
H         68.78123       17.07264       75.20969
H         69.15590       17.26814       77.65752
Ca        67.20962       19.21414       84.24050
O         65.09492       17.41691       85.52894
H         64.32495       17.97670       85.26051
H         64.71185       16.51619       85.66924
O         69.62640       18.31165       86.29239
H         70.49741       18.77898       86.23907
H         69.49928       18.13180       87.25788
O         67.70637       16.00640       86.24077
H         68.13479       15.11741       86.31494
H         66.98089       15.98718       86.91281

Ca 1.0



