%chk=apoCaM-CA-Ng.loop4.water3.frame454.chk
%nprocshared=20
%mem=10GB
%nosave
#b3lyp/svp scf=(tight,noincore,xqc) Test 
#IOP(5/87=12) Density=Current Pop=(MK,readradii) iop(6/33=2) iop(6/42=6)

apoCaM-CA-Ng.loop4.water3.frame454 

   -3  1 
C         65.93031       54.27743       90.83609
C         66.09603       52.94596       91.50344
O         66.73678       52.08874       90.92096
H         65.32004       54.96883       91.45224
H         66.93040       54.73161       90.66974
H         65.43174       54.13743       89.85355
N         65.56994       52.70413       92.73942
C         65.70713       51.43706       93.45135
C         67.16917       51.05836       93.64173
O         67.61395       50.05286       93.11879
C         64.76453       50.33034       92.90413
C         64.85896       49.98941       91.44489
O         65.87832       49.51518       90.97605
O         63.78431       50.16612       90.65142
H         65.07300       53.46778       93.22209
H         65.31843       51.57734       94.48577
H         63.72258       50.67273       93.09011
H         64.91151       49.40490       93.50245
N         67.93291       51.83347       94.46869
C         69.30217       51.60441       94.94413
C         69.41410       50.31367       95.75025
O         69.51595       50.38681       96.96689
C         70.41135       51.71197       93.85304
C         71.84059       51.61544       94.47366
C         70.27272       52.99362       93.01834
C         72.18060       52.68977       95.52014
H         67.46703       52.66311       94.86953
H         69.48053       52.43986       95.65464
H         70.30784       50.87031       93.13647
H         72.59071       51.68411       93.65866
H         71.97203       50.62200       94.95466
H         69.30264       52.99687       92.47913
H         70.32925       53.90197       93.65079
H         71.08102       53.03487       92.25613
H         71.52711       52.61267       96.41300
H         73.22343       52.54699       95.87268
H         72.10142       53.71029       95.09463
N         69.45615       49.10016       95.13263
C         69.52007       47.82681       95.83174
C         70.94242       47.27571       96.00660
O         71.25646       46.98121       97.15160
C         68.59829       46.78657       95.16423
C         67.16396       47.24506       95.13252
O         66.52042       47.54319       96.27773
O         66.56935       47.33057       94.07145
H         69.39329       49.07144       94.11478
H         69.10511       47.96042       96.85870
H         68.63500       45.84259       95.75113
H         68.94863       46.56853       94.13278
N         71.86179       47.01667       95.01785
C         71.81858       47.39713       93.61337
C         71.53833       46.22575       92.70147
O         71.23382       45.15617       93.21102
H         72.72705       46.53222       95.30472
H         72.79292       47.86409       93.35624
H         71.05584       48.14382       93.43369
N         71.55081       46.31701       91.33292
C         71.98359       47.46329       90.51460
C         71.34843       48.78724       90.99255
O         69.96443       48.62780       91.18092
C         71.74084       47.13274       89.00912
C         70.30381       46.88254       88.63762
O         69.48559       47.78521       88.67815
O         69.92699       45.66886       88.19247
H         71.24803       45.46887       90.82738
H         73.07808       47.59048       90.65499
H         72.32447       46.21579       88.77619
H         72.11371       47.92180       88.33554
N         71.64328       50.01055       90.21307
C         73.00066       50.27886       89.68523
C         74.10157       50.45487       90.70347
O         73.88971       50.23967       91.88756
H         71.35537       50.83252       90.79338
H         72.93588       51.23040       89.11358
H         73.32512       49.50894       88.96807
N         75.33250       50.87218       90.26823
C         76.48884       51.06123       91.14101
C         76.84789       52.53230       91.33482
O         77.66624       52.80055       92.20462
C         77.67348       50.16618       90.69347
C         78.20033       50.36512       89.25721
C         78.85715       51.69500       89.02995
N         79.94987       52.05541       89.73992
O         78.41864       52.44233       88.17224
H         75.44372       51.08283       89.26507
H         76.22102       50.71893       92.16461
H         77.32387       49.11302       90.75574
H         78.51176       50.27192       91.41563
H         77.37761       50.21193       88.52793
H         78.96510       49.58568       89.05115
H         80.35182       51.42973       90.45135
H         80.40713       52.95854       89.56962
N         76.21418       53.54058       90.65946
C         76.28802       54.94427       91.07735
C         76.87246       55.89581       90.03719
O         76.95434       57.07707       90.34242
C         74.86619       55.42547       91.50755
C         74.32482       54.58298       92.67419
C         73.85132       55.41504       90.34921
H         75.56909       53.30258       89.89520
H         76.94722       55.04598       91.96750
H         74.94745       56.47424       91.86997
H         75.02104       54.63332       93.53770
H         73.33712       54.97137       93.00311
H         74.19752       53.51976       92.37733
H         73.67029       54.38923       89.97150
H         72.88059       55.82048       90.70252
H         74.20002       56.04727       89.50622
N         77.29785       55.48368       88.80935
C         77.81150       56.40769       87.79789
C         76.96819       56.37597       86.53648
O         77.31984       57.10209       85.61235
C         79.26942       56.05859       87.41777
C         80.24736       56.17682       88.55739
N         80.43036       57.35004       89.20575
O         80.91500       55.20714       88.87544
H         77.24329       54.48927       88.56752
H         77.79298       57.45639       88.16470
H         79.61897       56.76048       86.62813
H         79.30263       55.02951       86.99600
H         79.89691       58.19099       88.94485
H         81.11992       57.41857       89.96923
N         75.85637       55.59168       86.39312
C         75.14877       55.51680       85.11936
C         73.78573       54.84620       85.20263
O         73.53308       54.03972       86.08781
C         76.04554       54.82198       84.05144
C         76.60272       53.47728       84.50573
C         77.98798       53.33257       84.72123
C         75.77152       52.36178       84.71907
C         78.52169       52.11229       85.14911
C         76.30734       51.14274       85.14814
C         77.68102       51.01318       85.36748
O         78.17965       49.83236       85.78755
H         75.50838       55.03789       87.18938
H         74.92984       56.56127       84.80106
H         76.90148       55.49468       83.83986
H         75.50587       54.71107       83.08755
H         78.66069       54.16688       84.56735
H         74.70906       52.41990       84.55330
H         79.58822       52.02379       85.31653
H         75.65178       50.29623       85.31098
H         79.12306       49.70298       85.96175
N         72.85663       55.16043       84.25099
C         71.54206       54.54858       84.06208
C         70.54117       54.72988       85.19431
O         69.41197       54.29922       84.99695
C         71.67315       53.05037       83.73622
C         72.53530       52.79712       82.49260
C         72.66102       51.32962       82.18640
O         72.06078       50.40045       82.95800
O         73.32143       50.97185       81.22536
H         73.12122       55.86925       83.54766
H         71.08090       55.04281       83.17535
H         70.65940       52.63585       83.53596
H         72.09928       52.51737       84.61204
H         73.55293       53.20905       82.64788
H         72.07861       53.31045       81.61837
N         70.82051       55.36558       86.36850
C         69.81153       55.53334       87.41269
C         69.34496       56.97511       87.48403
O         68.43224       57.24898       88.25164
C         70.37134       55.11403       88.78411
C         71.00311       53.72223       88.81144
C         70.03416       52.61496       88.57607
O         70.23824       51.79122       87.69849
O         69.03719       52.42580       89.45156
H         71.74735       55.78386       86.52479
H         68.91501       54.91229       87.19103
H         69.57142       55.17610       89.55691
H         71.16873       55.83386       89.06256
H         71.43023       53.55757       89.82344
H         71.83678       53.66376       88.08272
N         69.91973       57.95283       86.72210
C         69.51095       59.33822       86.75876
H         68.65913       59.51104       87.44765
H         70.36956       59.95792       87.09139
H         69.21228       59.65260       85.73740
H         70.69707       57.73430       86.08438
Ca        68.86700       50.30206       90.10708
O         66.35942       48.11265       88.23569
H         65.44321       47.77585       88.40093
H         66.78403       47.41623       87.67458
O         66.72699       51.04773       87.59690
H         66.22371       51.19995       86.75822
H         66.97168       51.95581       87.90421
O         67.60259       47.06475       90.79208
H         67.27241       47.45739       91.63684
H         67.52549       46.08787       90.92460

Ca 1.0



