%chk=apoCaM-CA-Ng.loop3.water5.frame1025.chk
%nprocshared=20
%mem=10GB
%nosave
#b3lyp/svp scf=(tight,noincore,xqc) Test 
#IOP(5/87=12) Density=Current Pop=(MK,readradii) iop(6/33=2) iop(6/42=6)

apoCaM-CA-Ng.loop3.water5.frame1025 

   0  1 
C         27.96890       45.53258       40.16863
C         27.95503       46.31817       38.89125
O         27.98826       47.53902       38.95627
H         27.08501       45.81279       40.78028
H         27.93165       44.44024       39.97563
H         28.89250       45.76443       40.73863
N         27.89716       45.68681       37.68296
C         27.84670       46.41515       36.42029
C         26.66586       47.38007       36.39323
O         26.90459       48.56355       36.20540
C         27.92701       45.47650       35.18481
C         26.93964       44.34169       35.04470
O         26.03034       44.05360       35.99084
O         27.00633       43.62547       34.05870
H         27.88708       44.65601       37.66674
H         28.76707       47.03993       36.34281
H         28.93440       45.00412       35.18966
H         27.86145       46.11198       34.27560
N         25.39169       46.97311       36.66260
C         24.25576       47.88371       36.79471
C         23.62430       48.11585       35.42898
O         22.54056       47.61287       35.16278
C         23.25667       47.29021       37.81511
C         22.19156       48.31834       38.23532
C         21.13527       47.75341       39.19724
C         21.72486       47.17301       40.49330
N         20.66077       46.77033       41.41170
H         25.24583       45.99522       36.93539
H         24.59702       48.84630       37.23492
H         23.83168       47.00948       38.72339
H         22.78759       46.36961       37.40228
H         21.65534       48.69973       37.34101
H         22.70203       49.17970       38.72057
H         20.54712       46.96486       38.67966
H         20.44701       48.58754       39.45609
H         22.36694       47.93312       40.99046
H         22.34703       46.28238       40.25699
H         20.03350       46.06893       40.95497
H         21.08785       46.33997       42.26350
H         20.10387       47.60767       41.69940
N         24.28736       48.84492       34.49274
C         23.86709       48.95847       33.10167
C         24.93887       48.31680       32.22933
O         25.98410       47.95201       32.75239
C         23.54982       50.43294       32.72212
C         24.68197       51.41419       32.94572
O         25.18504       51.98622       31.99272
O         25.12837       51.67527       34.19739
H         25.17277       49.28819       34.75919
H         22.93816       48.37074       32.93405
H         22.67850       50.78139       33.31694
H         23.24982       50.45179       31.65128
N         24.73195       48.07419       30.90240
C         25.74493       47.44476       30.06212
C         26.16270       46.10143       30.64295
O         25.29813       45.24677       30.77191
H         23.82623       48.32436       30.47791
H         26.59059       48.14743       29.96967
H         25.34151       47.28969       29.03818
N         27.42968       45.82703       31.08745
C         28.57262       46.73361       30.99019
C         29.69114       46.31792       31.95623
O         30.13151       45.17945       31.88129
C         29.12080       46.80486       29.54180
C         29.60360       45.48059       28.99405
N         28.73161       44.57615       28.49037
O         30.80190       45.24128       28.96767
H         27.57385       44.91891       31.55728
H         28.24877       47.74725       31.27733
H         29.97644       47.51509       29.55671
H         28.37884       47.22444       28.83158
H         27.72229       44.77792       28.45439
H         29.07239       43.68568       28.09700
N         30.23671       47.16689       32.88469
C         29.82805       48.55760       33.04858
C         30.61893       49.32458       34.09718
O         31.49097       48.75489       34.73849
H         30.99090       46.79186       33.47955
H         28.76580       48.56224       33.34415
H         29.96459       49.08880       32.08099
N         30.35513       50.65139       34.32565
C         31.11049       51.46184       35.27776
C         30.30820       52.77552       35.62198
O         29.05302       52.38179       36.11724
C         32.53886       51.67017       34.67368
C         33.59769       52.20681       35.60470
C         34.29917       53.38229       35.28190
C         33.90181       51.53414       36.80057
C         35.28013       53.87883       36.14531
C         34.88088       52.03491       37.66327
C         35.57351       53.20994       37.33799
O         36.52143       53.70286       38.16030
H         29.60775       51.11063       33.79330
H         31.17486       50.88545       36.22656
H         32.44749       52.30048       33.76183
H         32.94020       50.69092       34.34403
H         34.08656       53.91581       34.36392
H         33.37937       50.62482       37.06838
H         35.81298       54.78515       35.88642
H         35.10024       51.50841       38.58350
H         36.75543       53.26985       38.99369
N         30.96894       53.52520       36.70414
C         30.37373       54.83935       37.02408
C         30.82852       55.94425       36.07487
O         31.73252       55.74538       35.27437
C         30.77489       55.24967       38.48456
C         29.97056       54.44038       39.52730
C         32.30237       55.12279       38.71057
C         30.26900       54.85339       40.97384
H         31.96881       53.68203       36.50465
H         29.26753       54.78339       36.94852
H         30.49520       56.31441       38.64417
H         30.15557       53.35139       39.41316
H         28.89025       54.63374       39.34590
H         32.86612       55.68816       37.94001
H         32.60405       55.53214       39.69474
H         32.62104       54.05790       38.67692
H         31.30803       54.58957       41.25953
H         30.11872       55.94652       41.10822
H         29.58757       54.31553       41.66487
N         30.23731       57.17089       36.16130
C         30.71769       58.35693       35.46439
C         29.72066       58.86412       34.44440
O         28.63929       58.31075       34.31516
C         30.99111       59.45033       36.51763
O         29.79563       59.79345       37.17098
H         29.43002       57.28166       36.79510
H         31.66182       58.13331       34.92219
H         31.42073       60.35328       36.03212
H         31.72252       59.06485       37.26127
H         30.00201       60.56948       37.75320
N         30.03618       59.95731       33.69224
C         29.13778       60.61246       32.75505
C         27.90998       61.12705       33.48386
O         26.79216       60.82925       33.08526
C         28.80678       59.70021       31.56314
H         30.96466       60.38863       33.81616
H         29.66718       61.50123       32.34449
H         28.25389       58.79266       31.88109
H         28.18304       60.25052       30.82641
H         29.74500       59.38725       31.05772
N         28.06594       61.91469       34.59111
C         26.96565       62.51459       35.34117
C         26.01205       61.50033       35.96973
O         24.99671       61.92793       36.50380
C         26.21942       63.51970       34.45309
H         29.02325       62.12490       34.91316
H         27.39371       63.10842       36.17973
H         26.93759       64.27454       34.06607
H         25.71984       63.02592       33.59630
H         25.45014       64.05811       35.04684
N         26.27565       60.15911       35.99786
C         25.37511       59.18265       36.60504
C         25.13324       59.53525       38.05955
O         23.98603       59.73966       38.43116
C         25.94472       57.74995       36.45863
C         24.99678       56.68426       37.03462
C         25.53130       55.29834       36.81362
O         26.71142       54.93416       37.34823
O         24.88858       54.48853       36.16462
H         27.15526       59.81462       35.59691
H         24.40528       59.21005       36.05757
H         26.93462       57.67742       36.96014
H         26.08894       57.54273       35.37489
H         24.00235       56.77668       36.54555
H         24.86881       56.83757       38.12740
N         26.17584       59.65480       38.92763
C         26.01258       60.03156       40.31713
H         24.94813       60.18780       40.59306
H         26.43036       59.23568       40.96684
H         26.56075       60.97861       40.50478
H         27.13549       59.49409       38.58730
Ca        27.15148       52.60233       34.80976
O         24.96495       55.24217       33.14265
H         24.37042       54.58687       32.69915
H         25.35158       55.77028       32.39963
O         26.73455       51.45964       37.61108
H         26.14757       50.67612       37.75057
H         27.62556       51.15712       37.91899
O         27.77475       55.47949       33.99498
H         28.13586       55.74203       34.87728
H         28.37665       55.90910       33.33678
O         27.46095       50.58419       33.07552
H         27.06173       50.08285       32.32772
H         27.21592       50.08948       33.89940
O         28.05889       53.40876       31.80253
H         27.59326       52.74151       31.23952
H         27.70171       54.27962       31.49593

Ca 1.0



