%chk=apoCaM-CA-Ng.loop1.water3.frame768.chk
%nprocshared=20
%mem=10GB
%nosave
#b3lyp/svp scf=(tight,noincore,xqc) Test 
#IOP(5/87=12) Density=Current Pop=(MK,readradii) iop(6/33=2) iop(6/42=6)

apoCaM-CA-Ng.loop1.water3.frame768 

   0  1 
C         68.52355       14.07094       -2.09061
C         69.80071       14.82483       -2.31881
O         70.17495       15.00907       -3.46897
H         67.68377       14.60806       -2.58000
H         68.60864       13.05404       -2.52647
H         68.29479       13.97488       -1.00804
N         70.51884       15.30636       -1.26556
C         71.74813       16.07644       -1.41146
C         72.94167       15.38222       -0.76890
O         72.78481       14.29795       -0.22040
C         71.49417       17.52996       -0.94048
C         70.98667       17.84197        0.45683
O         70.68902       19.00435        0.68382
O         70.82341       16.95699        1.46655
H         70.15657       15.14278       -0.31574
H         72.02030       16.16353       -2.48682
H         70.71382       17.92545       -1.62886
H         72.40621       18.13917       -1.11031
N         74.18669       15.93294       -0.84121
C         75.37547       15.35715       -0.21904
C         75.86780       16.28293        0.86756
O         76.09595       17.45998        0.60974
C         76.51607       15.10550       -1.22378
C         76.30701       13.83633       -2.06393
C         77.57952       13.51531       -2.86581
C         77.49822       12.14024       -3.54156
N         78.73925       11.83915       -4.25689
H         74.29842       16.83624       -1.33034
H         75.14607       14.37980        0.26000
H         77.43475       14.91478       -0.62299
H         76.70322       16.00134       -1.85611
H         75.42702       13.93781       -2.73478
H         76.12523       12.98987       -1.36422
H         78.44932       13.49144       -2.17161
H         77.75367       14.30947       -3.62368
H         76.64265       12.11452       -4.25062
H         77.33509       11.36016       -2.76340
H         78.89537       12.54030       -5.01672
H         79.55041       11.85178       -3.59559
H         78.66998       10.88615       -4.68130
N         76.08762       15.78745        2.11524
C         76.51049       16.58463        3.25712
C         76.84156       15.66831        4.43855
O         76.02377       14.82147        4.77361
C         75.43609       17.63714        3.62589
C         74.05353       17.07674        3.83804
O         73.14179       17.42783        3.10728
O         73.79694       16.22395        4.84591
H         75.95617       14.77377        2.25721
H         77.41733       17.15341        2.97652
H         75.37818       18.37931        2.80170
H         75.75550       18.19248        4.53359
N         77.99769       15.76272        5.15745
C         79.01236       16.78126        4.95123
C         79.85706       16.55263        3.72358
O         79.72123       15.53905        3.05320
H         78.12148       15.13053        5.96368
H         79.71461       16.77188        5.81242
H         78.52682       17.77961        4.92676
N         80.78098       17.49454        3.38529
C         81.73167       17.32861        2.29482
C         82.74001       16.22976        2.60376
O         83.13346       15.52252        1.68668
C         82.41430       18.66622        1.91067
C         83.18220       19.40141        2.98382
O         83.71424       20.46373        2.70510
O         83.27486       18.94016        4.24334
H         80.80210       18.36557        3.93565
H         81.17095       17.03640        1.37697
H         81.61883       19.35662        1.55330
H         83.10229       18.47536        1.05815
N         83.18600       16.01074        3.87781
C         84.14241       14.97198        4.23127
C         83.60640       13.55636        4.09207
O         84.36696       12.63497        4.35252
H         82.85452       16.61522        4.64141
H         84.43588       15.10346        5.29574
H         85.05697       15.09658        3.61082
N         82.32760       13.29613        3.69104
C         81.78020       11.95821        3.49977
C         80.52998       11.78283        4.33710
O         79.69941       12.68073        4.38867
C         81.43812       11.72974        2.01859
C         82.69446       11.82643        1.14715
O         80.88313       10.44611        1.87640
H         81.69819       14.07662        3.47750
H         82.52034       11.17484        3.78143
H         80.69862       12.50296        1.70263
H         80.36242       10.44676        1.03234
H         83.44199       11.06655        1.46357
H         82.42914       11.64503        0.08554
H         83.15323       12.83314        1.22515
N         80.33807       10.62423        5.01972
C         79.22371       10.39818        5.92599
C         79.71947       10.75985        7.30908
O         79.08200       11.56771        7.97006
C         78.68506        8.94223        5.79576
C         78.25810        8.59183        4.34063
C         77.52361        8.68598        6.77529
C         77.13742        9.46061        3.75436
H         81.06477        9.89419        4.95756
H         78.37869       11.08541        5.69807
H         79.50272        8.23739        6.06614
H         77.92310        7.53118        4.31103
H         79.14019        8.67384        3.67063
H         77.16051        7.63997        6.67736
H         77.85785        8.82863        7.82375
H         76.67526        9.37644        6.58780
H         77.44419       10.52453        3.69550
H         76.91135        9.11853        2.72204
H         76.20516        9.37553        4.34879
N         80.91462       10.28299        7.76455
C         81.55879       10.79601        8.96596
C         82.46752        9.74360        9.56770
O         83.32954        9.21768        8.87862
C         82.32535       12.12049        8.68948
C         83.46044       12.00672        7.66389
O         81.41737       13.09944        8.25255
H         81.46206        9.65760        7.15490
H         80.77933       11.04950        9.71838
H         82.77068       12.43807        9.66407
H         81.73692       13.97390        8.59814
H         84.24567       11.30252        8.00299
H         83.06797       11.68074        6.67867
H         83.94600       12.99883        7.54202
N         82.32078        9.40036       10.87507
C         83.16332        8.43180       11.56696
C         82.60284        8.23296       12.96587
O         82.19181        7.12767       13.29005
C         84.66299        8.87736       11.57701
C         85.55649        7.89096       12.33662
O         84.80070       10.16195       12.12830
H         81.56457        9.85921       11.40722
H         83.09735        7.45749       11.03171
H         85.02547        8.90107       10.52637
H         85.67475       10.52220       11.82376
H         85.48023        6.87926       11.88612
H         86.61548        8.22278       12.27625
H         85.26947        7.84022       13.40802
N         82.54967        9.27524       13.84068
C         82.01528        9.18047       15.18840
C         81.15850       10.39996       15.47725
O         81.63168       11.51658       15.30933
C         83.16364        8.98120       16.19404
C         84.23064       10.08914       16.21379
C         85.43213        9.72741       17.10321
C         85.06447        9.52582       18.58234
N         86.25789        9.24726       19.37979
H         82.93339       10.18493       13.55071
H         81.38834        8.26723       15.29431
H         83.66545        8.02460       15.92630
H         82.71551        8.86592       17.20293
H         83.78666       11.04563       16.55971
H         84.62707       10.23466       15.18639
H         86.17042       10.55483       17.02794
H         85.91109        8.80176       16.71358
H         84.36259        8.67164       18.69131
H         84.56924       10.44325       18.96964
H         86.92322       10.05210       19.32372
H         85.97767        9.10779       20.37739
H         86.72566        8.37724       19.03523
N         79.87914       10.26343       15.92463
C         79.02032       11.41340       16.17853
C         78.69509       12.14499       14.87777
O         79.00864       13.32457       14.80679
C         77.75818       11.01463       16.97817
C         76.94693       12.24488       17.41801
C         75.81124       11.84553       18.31543
O         74.65893       12.09321       17.99912
O         76.06217       11.22882       19.48686
H         79.52269        9.31643       16.12452
H         79.57663       12.10429       16.85430
H         78.10274       10.48329       17.89300
H         77.10041       10.32584       16.41273
H         76.55406       12.77481       16.52276
H         77.59932       12.94537       17.98335
N         78.09170       11.57156       13.79120
C         77.69106       10.18442       13.65602
H         76.59898       10.13287       13.46533
H         78.22481        9.73516       12.79213
H         77.91574        9.56490       14.53588
H         77.91530       12.16945       12.96863
Ca        71.27505       14.79218        1.93663
O         73.80169       13.02469        2.38380
H         74.62956       12.50829        2.21675
H         74.04868       13.66907        3.09324
O         70.70422       16.47265        4.95386
H         71.19762       17.06460        5.57579
H         69.94654       17.02442        4.63538
O         72.14891       13.45728        5.19117
H         73.10324       13.23066        5.32642
H         71.86526       13.85231        6.05343

Ca 1.0



