%chk=apoCaM-CA-Ng.loop1.water3.frame1480.chk
%nprocshared=20
%mem=10GB
%nosave
#b3lyp/svp scf=(tight,noincore,xqc) Test 
#IOP(5/87=12) Density=Current Pop=(MK,readradii) iop(6/33=2) iop(6/42=6)

apoCaM-CA-Ng.loop1.water3.frame1480 

   0  1 
C         50.88835       50.78750       63.83503
C         49.86914       51.49503       62.99386
O         49.88836       52.71380       62.92411
H         51.57960       51.51079       64.31620
H         50.37095       50.20300       64.62505
H         51.47739       50.09363       63.19879
N         48.94634       50.76600       62.31255
C         47.89822       51.33702       61.46939
C         46.49675       50.93267       61.93654
O         45.53128       51.29743       61.27974
C         48.15842       50.92321       60.00062
C         48.13374       49.43933       59.70939
O         48.39026       49.05251       58.58068
O         47.83300       48.53132       60.65808
H         49.00941       49.74044       62.39105
H         47.94292       52.44478       61.49308
H         49.16290       51.30872       59.71859
H         47.41180       51.41614       59.34101
N         46.31181       50.15179       63.04090
C         45.02467       49.58631       63.43159
C         43.97288       50.56787       63.96772
O         42.81320       50.18948       63.87271
C         45.23306       48.41294       64.41249
C         46.06003       47.28438       63.75588
C         46.40566       46.18175       64.76185
C         47.28245       45.07262       64.15125
N         46.55778       44.25764       63.17431
H         47.13482       49.86240       63.58453
H         44.58365       49.14027       62.51030
H         44.25230       47.98620       64.71748
H         45.74742       48.79775       65.32072
H         47.02032       47.67909       63.36399
H         45.48236       46.87620       62.89984
H         45.48260       45.73997       65.19431
H         46.98804       46.65272       65.58369
H         47.62363       44.40921       64.97565
H         48.18740       45.51862       63.67980
H         47.19416       43.50484       62.82502
H         45.73075       43.80864       63.63092
H         46.24809       44.82962       62.35782
N         44.17995       51.80598       64.51857
C         45.44725       52.44339       64.85803
C         45.75942       53.58514       63.91928
O         44.89342       54.04726       63.18904
C         45.47286       52.87630       66.34595
C         44.17026       53.44952       66.86932
O         43.61189       54.61762       66.46847
O         43.55750       52.78526       67.69049
H         43.32868       52.34958       64.73305
H         46.28214       51.73629       64.74136
H         46.32770       53.54635       66.56219
H         45.64735       51.94438       66.93092
N         47.05744       53.98782       63.80109
C         47.51792       54.95816       62.82283
C         47.13248       56.35850       63.18144
O         46.51002       56.55723       64.20670
H         47.77294       53.51762       64.37608
H         47.14002       54.68543       61.81413
H         48.62657       54.94436       62.79918
N         47.51640       57.39676       62.38595
C         47.22605       58.80150       62.69736
C         48.32855       59.71915       62.14536
O         49.13695       59.25270       61.35493
C         45.82494       59.16773       62.13255
C         44.76914       58.32715       62.78982
O         44.13085       57.51647       62.13776
O         44.63768       58.37503       64.13008
H         48.06070       57.16375       61.54207
H         47.24939       58.91705       63.80018
H         45.82596       58.99614       61.03309
H         45.55764       60.22152       62.30152
N         48.48365       61.03186       62.50656
C         47.69841       61.74519       63.50045
C         47.90076       61.19905       64.88957
O         48.91011       60.56181       65.15212
H         49.24256       61.56584       62.05522
H         46.63108       61.75574       63.22885
H         48.00815       62.81162       63.52909
N         46.95228       61.41584       65.83890
C         47.04239       60.89033       67.19550
C         47.12471       59.37571       67.16646
O         46.31411       58.74222       66.50832
C         45.82494       61.33850       68.04517
C         45.80582       62.85835       68.26706
O         45.83077       60.69516       69.29325
H         46.11592       61.95534       65.56834
H         47.95245       61.29380       67.69311
H         44.89078       61.03981       67.52057
H         46.70334       60.88375       69.72861
H         44.91676       63.13959       68.86977
H         46.71765       63.17550       68.81875
H         45.76560       63.41076       67.30699
N         48.07553       58.74204       67.91214
C         48.25697       57.29941       68.01889
C         46.97342       56.65506       68.51332
O         46.07625       56.39230       67.72515
C         48.83910       56.67386       66.71839
C         50.12821       57.43438       66.31262
C         49.11981       55.17098       66.90906
C         50.79830       56.92629       65.03672
H         48.70272       59.32133       68.49058
H         49.03414       57.14154       68.80061
H         48.10063       56.78971       65.91073
H         50.86764       57.39477       67.14098
H         49.86970       58.49617       66.13755
H         48.20445       54.63317       67.21837
H         49.45421       54.70575       65.95877
H         49.89885       55.01375       67.68411
H         51.18988       55.89819       65.17486
H         50.08859       56.94906       64.18353
H         51.66340       57.58168       64.79998
N         46.82558       56.39654       69.83938
C         45.62655       55.82087       70.42926
C         45.04491       56.71106       71.52501
O         44.20509       56.20815       72.24843
C         45.93298       54.39020       70.93919
C         47.02774       54.33484       72.00519
O         46.32199       53.58368       69.85814
H         47.60693       56.62268       70.47223
H         44.81766       55.69453       69.67410
H         45.01034       53.96140       71.40055
H         45.48785       53.28446       69.41195
H         47.16596       53.28249       72.33092
H         47.99527       54.69432       71.59889
H         46.74778       54.94543       72.88823
N         45.41155       58.02378       71.69645
C         44.83970       58.93256       72.70660
C         43.35087       59.14682       72.41760
O         43.00425       60.13641       71.78659
C         45.61832       60.28743       72.69222
C         45.18641       61.24090       73.81381
O         46.99427       60.03568       72.82793
H         46.12424       58.41183       71.06163
H         44.98015       58.49745       73.72032
H         45.42791       60.78817       71.71873
H         47.47147       60.80359       72.41452
H         45.38999       60.78519       74.80539
H         45.76580       62.18737       73.73736
H         44.10935       61.49475       73.74229
N         42.42485       58.20821       72.78449
C         41.02394       58.19069       72.36537
C         40.91265       58.03979       70.85228
O         41.77842       58.51436       70.13272
C         40.23783       59.40233       72.88546
C         40.33020       59.51372       74.42043
C         39.67958       60.79490       74.95524
C         38.15673       60.83822       74.76480
N         37.62277       62.12036       75.22108
H         42.71972       57.43191       73.38884
H         40.55716       57.28469       72.81581
H         39.17794       59.28631       72.57576
H         40.63120       60.33124       72.42494
H         41.40248       59.56235       74.70870
H         39.88457       58.61708       74.90608
H         40.15089       61.66481       74.44852
H         39.89612       60.87139       76.04354
H         37.69067       60.00918       75.34345
H         37.88943       60.71232       73.69554
H         36.58380       62.12043       75.10726
H         37.85875       62.27736       76.22759
H         38.02412       62.89359       74.64109
N         39.87933       57.35230       70.28920
C         39.80405       57.12549       68.84812
C         41.00436       56.31969       68.36641
O         41.69252       56.81595       67.48749
C         38.47621       56.47280       68.41736
C         37.28763       57.41688       68.64400
C         36.00872       56.79258       68.16835
O         34.99639       56.58901       69.03205
O         35.87499       56.47764       66.99612
H         39.14392       56.96876       70.90189
H         39.83412       58.11132       68.32719
H         38.29359       55.52485       68.95325
H         38.53610       56.25541       67.32675
H         37.44864       58.36322       68.08232
H         37.19850       57.65981       69.72368
N         41.37847       55.10616       68.86569
C         40.71229       54.37040       69.91559
H         39.70019       54.06264       69.60131
H         41.27904       53.43680       70.12268
H         40.68267       54.96253       70.85073
H         42.22859       54.67916       68.48478
Ca        44.10300       56.51402       65.32822
O         44.03209       58.23490       68.16791
H         44.48539       58.47478       69.01303
H         43.31236       58.90537       68.07334
O         41.95443       59.17908       65.71548
H         41.57795       59.71078       66.46136
H         41.71800       59.68948       64.90130
O         41.92601       55.62093       63.68193
H         41.06239       55.45448       63.23047
H         42.14031       56.56099       63.45878

Ca 1.0



