%chk=apoCaM-CA-Ng.loop2.water4.frame1286.chk
%nprocshared=20
%mem=10GB
%nosave
#b3lyp/svp scf=(tight,noincore,xqc) Test 
#IOP(5/87=12) Density=Current Pop=(MK,readradii) iop(6/33=2) iop(6/42=6)

apoCaM-CA-Ng.loop2.water4.frame1286 

   -2  1 
C         64.56834       60.37069        4.50164
C         63.24785       61.03840        4.79016
O         63.05215       62.12240        4.25985
H         65.38159       61.06200        4.81029
H         64.75194       59.42183        5.02897
H         64.65585       60.18657        3.41142
N         62.28786       60.54343        5.62791
C         62.32179       59.26637        6.34300
C         62.67515       59.44402        7.81587
O         62.70322       58.44846        8.52736
C         60.99697       58.49062        6.14699
C         59.77687       59.16297        6.71365
O         58.69159       58.61043        6.63480
O         59.86231       60.36504        7.30721
H         61.47944       61.15984        5.79287
H         63.09712       58.59942        5.93032
H         61.09396       57.49566        6.63534
H         60.83307       58.32149        5.06108
N         63.05402       60.65342        8.32692
C         63.58783       60.78578        9.67745
C         62.53831       60.70597       10.77595
O         62.94466       60.60190       11.92559
C         64.34225       62.11575        9.81365
H         63.09722       61.47341        7.70467
H         64.33579       59.97396        9.82649
H         64.81645       62.19990       10.81467
H         65.14378       62.17712        9.04615
H         63.64713       62.97152        9.67077
N         61.19901       60.85363       10.53608
C         60.22244       60.94622       11.62217
C         58.99742       60.02209       11.46787
O         59.03338       59.04368       10.47890
C         59.73777       62.40919       11.77385
C         59.33442       63.16857       10.51177
O         59.85787       64.25196       10.30350
O         58.43093       62.72263        9.60639
H         60.87540       61.01745        9.57339
H         60.68938       60.65872       12.58970
H         60.57302       62.98441       12.23362
H         58.89898       62.43956       12.49977
N         58.41228       59.52794       12.72436
C         57.05801       58.97992       12.51793
C         55.98147       60.03405       12.33350
O         56.25035       61.21705       12.48162
H         58.39010       60.27482       13.45686
H         56.78035       58.37011       13.40339
H         57.05578       58.28909       11.65059
N         54.71151       59.63768       12.02141
C         53.56070       60.54233       11.91194
C         52.26167       59.80282       11.58451
O         52.28220       58.63405       11.22154
C         53.78545       61.67793       10.87433
C         54.29049       61.22225        9.52028
N         53.60668       60.34589        8.75071
O         55.34502       61.67600        9.10496
H         54.56263       58.62602       11.89035
H         53.40566       61.00744       12.91072
H         54.52395       62.39809       11.28223
H         52.84665       62.25741       10.74309
H         52.72858       59.92800        9.06012
H         53.96644       60.06618        7.82898
N         51.06921       60.45686       11.70497
C         49.78928       59.86784       11.33967
C         49.57909       59.87068        9.83218
O         50.43929       60.35618        9.11703
H         51.06159       61.41123       12.09648
H         48.98227       60.49776       11.76945
H         49.70490       58.84971       11.77774
N         48.43839       59.41381        9.23946
C         47.30280       58.84063        9.94700
C         47.01825       57.44582        9.39910
O         45.89049       57.16166        9.01737
C         46.08762       59.79799        9.81225
C         46.37286       61.15704       10.46927
O         45.78486       59.98776        8.45206
H         48.36161       59.50268        8.21317
H         47.52401       58.71932       11.02615
H         45.21742       59.33470       10.33130
H         44.88959       60.41443        8.40938
H         46.59134       61.02270       11.54937
H         47.23533       61.66279        9.98449
H         45.48680       61.81945       10.37444
N         48.02763       56.53017        9.29764
C         47.84901       55.18009        8.76184
C         48.48458       54.16997        9.72231
O         49.66376       54.32984       10.00708
C         48.51977       55.05330        7.35829
C         47.92146       56.08680        6.36781
C         48.33173       53.61898        6.81625
C         48.57011       56.06094        4.98083
H         48.98098       56.82279        9.56283
H         46.77381       54.98063        8.60499
H         49.60995       55.25236        7.46283
H         48.07151       57.10921        6.77360
H         46.82844       55.91382        6.25507
H         48.75160       52.87849        7.51910
H         47.25413       53.38973        6.67154
H         48.86902       53.46565        5.86058
H         48.39312       55.09668        4.46309
H         48.12214       56.85681        4.35007
H         49.66255       56.24199        5.06286
N         47.84460       53.07088       10.22791
C         46.45104       52.71551        9.99242
C         46.23148       51.20742       10.05882
O         46.63999       50.57092       11.01833
C         45.53268       53.48058       10.96850
C         45.84246       53.25337       12.42751
O         45.69907       52.03662       12.98521
O         46.19068       54.19106       13.12661
H         48.39916       52.44142       10.82988
H         46.14885       53.01104        8.96991
H         44.47434       53.20024       10.77496
H         45.63565       54.56622       10.75403
N         45.53774       50.58320        9.06166
C         45.14921       49.17298        9.08745
C         44.37657       48.85404        7.80775
O         43.40103       49.54646        7.54734
C         44.21885       48.88844       10.30162
C         43.78104       47.44134       10.36024
C         42.43162       47.09853       10.16496
C         44.71667       46.42114       10.60552
C         42.03142       45.75892       10.19550
C         44.31244       45.08254       10.63440
C         42.97133       44.75152       10.42648
H         45.22865       51.15657        8.26138
H         46.06317       48.55152        9.16986
H         43.33056       49.55340       10.22031
H         44.71269       49.12675       11.26498
H         41.69053       47.86516        9.97741
H         45.76042       46.66141       10.76553
H         40.99236       45.50141       10.03581
H         45.03959       44.30121       10.81452
H         42.66015       43.71488       10.44522
N         44.69474       47.81891        6.97028
C         45.71191       46.80770        7.20744
C         47.09671       47.19587        6.71709
O         47.98646       46.36701        6.84680
C         45.17785       45.61931        6.39574
C         44.60834       46.31570        5.17355
C         43.87954       47.48971        5.81483
H         45.77296       46.50024        8.26525
H         45.91386       44.81339        6.18881
H         44.31898       45.17165        6.94809
H         45.46364       46.70961        4.57874
H         43.97391       45.69265        4.50886
H         43.78193       48.33060        5.09426
H         42.87340       47.18166        6.17807
N         47.35424       48.38673        6.10019
C         48.64868       48.68848        5.48994
C         48.46992       48.79766        3.97729
O         47.34003       48.92951        3.52671
C         49.22307       49.99551        6.08562
C         49.47087       49.93527        7.60684
C         50.55521       48.98291        8.04187
O         50.85085       48.88450        9.35168
O         51.19226       48.32415        7.23528
H         46.59897       49.07961        5.99273
H         49.35087       47.85184        5.66639
H         48.49414       50.81006        5.88426
H         50.17207       50.28312        5.59598
H         48.52376       49.68019        8.12748
H         49.78922       50.94107        7.94723
N         49.50532       48.69204        3.09399
C         50.87977       48.42740        3.46382
H         51.29893       49.25240        4.06636
H         50.95115       47.46962        4.02096
H         51.49951       48.33479        2.54663
H         49.29327       48.75484        2.08576
Ca        58.04218       60.55593        9.20761
O         55.75460       60.08354        5.97979
H         55.49820       60.27531        5.04309
H         55.50599       59.13518        6.11753
O         56.54887       64.21072        7.77736
H         56.51837       64.47501        8.73121
H         57.46192       64.45472        7.48176
O         57.93008       62.09942        5.77867
H         57.84098       62.95164        5.28325
H         58.07217       61.41708        5.07525
O         55.97863       58.34492        9.08815
H         55.09694       57.97534        8.83281
H         56.49291       57.56095        9.40421

Ca 1.0



