%chk=apoCaM-CA-Ng.loop1.water1.frame922.chk
%nprocshared=20
%mem=10GB
%nosave
#b3lyp/svp scf=(tight,noincore,xqc) Test 
#IOP(5/87=12) Density=Current Pop=(MK,readradii) iop(6/33=2) iop(6/42=6)

apoCaM-CA-Ng.loop1.water1.frame922 

   0  1 
C         22.20773       31.81250       14.92928
C         23.03274       30.57139       15.08663
O         23.13321       29.80181       14.14085
H         21.37202       31.80339       15.65882
H         22.84234       32.70623       15.10487
H         21.78717       31.87336       13.90202
N         23.68324       30.32046       16.25906
C         24.53470       29.14641       16.43812
C         23.74238       27.84394       16.37264
O         22.52195       27.88875       16.29438
C         25.51580       29.34096       17.62538
C         25.05090       29.78234       19.00050
O         23.76891       29.83761       19.41634
O         25.90868       30.18177       19.77262
H         23.60925       31.01754       17.01589
H         25.21065       29.09856       15.55434
H         26.15651       30.18942       17.29123
H         26.18640       28.46228       17.72531
N         24.38809       26.64015       16.29871
C         23.70338       25.38362       15.99123
C         23.57580       24.52457       17.22772
O         24.55884       24.30794       17.92235
C         24.42440       24.62466       14.85597
C         23.60580       23.38921       14.42949
C         24.24679       22.62874       13.26318
C         23.43160       21.38630       12.85070
N         22.09116       21.72574       12.36393
H         25.41475       26.61866       16.39615
H         22.68073       25.60186       15.61102
H         25.44371       24.31966       15.18175
H         24.52420       25.30149       13.97886
H         22.59898       23.74300       14.12595
H         23.49913       22.69108       15.28791
H         25.25949       22.28889       13.57220
H         24.35655       23.30378       12.38702
H         23.34901       20.68425       13.70995
H         23.98441       20.86592       12.03789
H         21.49867       22.10732       13.13483
H         22.15328       22.41807       11.58252
H         21.62814       20.85809       12.00923
N         22.35839       23.99724       17.54738
C         22.07360       23.27635       18.78053
C         21.57740       21.86094       18.48336
O         20.61620       21.74960       17.73439
C         20.98372       24.05811       19.53930
C         21.46307       25.45869       19.78474
O         20.88384       26.48962       19.14132
O         22.45083       25.65625       20.47554
H         21.56604       24.16155       16.90608
H         22.96035       23.28161       19.42733
H         20.73843       23.56542       20.50483
H         20.06031       24.09677       18.91937
N         22.08805       20.71981       19.04890
C         23.19992       20.63948       19.98593
C         24.16057       19.54302       19.60234
O         24.63192       19.52540       18.47363
H         21.60160       19.83386       18.84077
H         22.79537       20.43429       20.99944
H         23.78826       21.56356       20.04664
N         24.54827       18.62229       20.53289
C         25.51088       17.56654       20.24895
C         24.85691       16.50447       19.39270
O         23.90902       15.87913       19.85078
C         26.02423       16.94510       21.57026
C         27.10086       15.90182       21.39345
O         27.62179       15.30533       22.48205
O         27.51650       15.59362       20.28709
H         24.19090       18.71821       21.49635
H         26.39100       18.02005       19.73950
H         25.17435       16.48928       22.12396
H         26.44936       17.75688       22.19946
N         25.31349       16.23776       18.13713
C         24.74281       15.18853       17.30833
C         23.29305       15.41594       16.93023
O         22.72814       14.51975       16.31655
H         26.11779       16.76627       17.76779
H         24.82262       14.22739       17.86203
H         25.33129       15.09243       16.37076
N         22.61839       16.56231       17.24342
C         21.21135       16.77175       16.92930
C         20.42224       16.98954       18.21033
O         21.01435       17.18788       19.26550
C         21.06973       17.99899       15.98977
C         21.85833       17.81432       14.69018
O         19.71962       18.21684       15.67071
H         23.10591       17.33319       17.72121
H         20.78950       15.87316       16.42708
H         21.47993       18.88752       16.52810
H         19.61524       19.18827       15.49194
H         22.94062       17.68187       14.89969
H         21.48311       16.92953       14.13396
H         21.74079       18.71510       14.05137
N         19.06207       16.96270       18.18008
C         18.21341       17.28484       19.32017
C         17.44898       16.04881       19.78205
O         17.56816       15.70297       20.94855
C         17.35928       18.54707       18.98975
C         16.63269       19.06087       20.25328
C         16.38501       18.36080       17.80844
C         16.06477       20.47153       20.07710
H         18.60732       16.71651       17.28951
H         18.85281       17.59045       20.18023
H         18.09450       19.33152       18.69661
H         17.36623       19.12564       21.08628
H         15.82838       18.35419       20.55284
H         15.59892       17.61861       18.05263
H         15.88869       19.31687       17.55048
H         16.91691       18.04703       16.88928
H         16.87294       21.17523       19.78381
H         15.25578       20.50114       19.32060
H         15.65074       20.82490       21.03946
N         16.72430       15.28261       18.91370
C         16.09744       14.01199       19.29053
C         14.59771       14.05596       18.99436
O         14.11243       15.06939       18.50962
C         16.84424       12.86566       18.54673
C         18.33127       12.84125       18.93412
O         16.29705       11.61595       18.87335
H         16.67643       15.55929       17.92274
H         16.19944       13.82643       20.38227
H         16.74976       13.04288       17.44961
H         16.54359       10.98857       18.14430
H         18.83726       13.79023       18.66146
H         18.43834       12.67727       20.02896
H         18.84829       12.01388       18.40416
N         13.78974       12.98899       19.28322
C         12.34852       12.99724       19.04334
C         11.58845       13.77688       20.11088
O         10.38112       13.91118       19.97493
C         11.78261       11.55184       18.94276
C         11.81817       10.77402       20.26658
O         12.49112       10.82696       17.97054
H         14.20858       12.14011       19.67726
H         12.16847       13.46380       18.04810
H         10.70706       11.60532       18.64876
H         12.16614       11.13677       17.08488
H         11.37751        9.76609       20.11443
H         12.85227       10.64621       20.64335
H         11.21466       11.29099       21.04184
N         12.21595       14.29984       21.20761
C         11.50303       15.00092       22.26936
C         12.49019       15.75111       23.15003
O         13.44170       15.16093       23.64217
C         10.58355       14.05927       23.08646
C         11.30416       12.98220       23.91590
C         10.27799       12.13655       24.68963
C         10.91647       11.14657       25.67823
N         11.73182       10.13040       25.01333
H         13.23775       14.21564       21.28997
H         10.83864       15.75585       21.79361
H          9.86421       13.56388       22.40081
H          9.99204       14.69245       23.78429
H         11.96953       13.47195       24.65597
H         11.91185       12.33773       23.24694
H          9.62391       11.58945       23.97578
H          9.63827       12.82081       25.28978
H         10.09652       10.63994       26.23479
H         11.53583       11.70122       26.41794
H         12.55765       10.56681       24.54615
H         12.08150        9.45750       25.73354
H         11.15608        9.60742       24.31449
N         12.31889       17.08506       23.35849
C         13.25124       17.92296       24.09681
C         13.82353       19.02044       23.19865
O         15.03894       19.02642       23.06353
C         12.61277       18.48331       25.38076
C         12.29142       17.36943       26.38726
C         11.70928       17.94512       27.64612
O         10.59283       17.61633       28.01325
O         12.42043       18.82193       28.38151
H         11.47386       17.51666       22.97705
H         14.12339       17.31764       24.43731
H         11.68365       19.03620       25.15859
H         13.33927       19.17983       25.85614
H         13.22201       16.82031       26.64998
H         11.57314       16.65036       25.93641
N         13.10855       19.99211       22.54655
C         11.67184       20.17368       22.53168
H         11.16306       19.33155       22.03165
H         11.27588       20.35691       23.54450
H         11.42313       21.06968       21.92432
H         13.63966       20.67950       21.99393
Ca        22.09788       28.37983       19.08585
O         23.23185       28.48659       22.31813
H         23.61322       29.39031       22.45413
H         22.44630       28.45554       22.92018

Ca 1.0



