%chk=apoCaM-CA-Ng.loop2.water4.frame88.chk
%nprocshared=20
%mem=10GB
%nosave
#b3lyp/svp scf=(tight,noincore,xqc) Test 
#IOP(5/87=12) Density=Current Pop=(MK,readradii) iop(6/33=2) iop(6/42=6)

apoCaM-CA-Ng.loop2.water4.frame88 

   -2  1 
C         60.08541       44.30249      106.62406
C         61.16157       44.23167      107.66811
O         62.05108       45.07056      107.64051
H         59.54954       45.27175      106.70958
H         60.54223       44.23195      105.61427
H         59.34994       43.47957      106.73977
N         61.13799       43.26507      108.63383
C         62.14567       43.16499      109.68732
C         62.88336       41.82427      109.67392
O         63.88499       41.71792      110.36697
C         61.45706       43.41609      111.04120
C         62.42124       43.48055      112.19100
O         62.31310       42.60828      113.21093
O         63.29728       44.33050      112.21246
H         60.35043       42.59932      108.64280
H         62.91551       43.95313      109.53279
H         60.70919       42.61255      111.22167
H         60.91629       44.38654      110.99588
N         62.47364       40.76812      108.90756
C         63.19741       39.50519      108.78079
C         64.54324       39.71765      108.11126
O         65.48974       38.99514      108.39334
C         63.30184       38.75276      110.11757
H         61.61914       40.84983      108.34141
H         62.61160       38.85819      108.09017
H         63.77255       37.75830      109.96061
H         63.91878       39.30824      110.85295
H         62.28975       38.59409      110.54417
N         64.68114       40.70352      107.17986
C         65.89237       40.96504      106.41794
C         67.06857       41.28207      107.31656
O         68.18805       40.89506      107.01001
C         66.12445       39.81884      105.39740
C         64.96146       39.73477      104.43363
O         64.86074       38.81191      103.64240
O         64.09565       40.76467      104.39884
H         63.87752       41.31778      106.98008
H         65.72311       41.90369      105.84176
H         66.25474       38.85991      105.93946
H         67.03734       40.00578      104.79111
N         66.88504       42.05185      108.42960
C         67.98413       42.54364      109.23847
C         68.65885       43.74549      108.59730
O         69.63222       44.22936      109.15654
H         65.93152       42.32932      108.70466
H         68.70466       41.71796      109.43145
H         67.59162       42.88227      110.22097
N         68.19390       44.29153      107.43283
C         68.81627       45.42573      106.76071
C         68.67809       46.68662      107.60297
O         67.56474       47.10181      107.89396
C         68.18507       45.57630      105.35726
C         68.89558       46.54687      104.44618
N         68.88308       47.87805      104.67925
O         69.47180       46.11797      103.45716
H         67.37407       43.87033      106.97521
H         69.88875       45.17561      106.59888
H         67.10533       45.83358      105.42581
H         68.26175       44.57414      104.88239
H         68.38731       48.27250      105.48707
H         69.35737       48.52302      104.03056
N         69.79115       47.33345      108.04374
C         69.77496       48.51655      108.88932
C         69.23809       49.74500      108.19106
O         69.73593       50.07152      107.12222
H         70.71496       46.94590      107.79828
H         70.82870       48.75483      109.15327
H         69.23447       48.30830      109.83703
N         68.29056       50.53431      108.78516
C         67.95883       51.86388      108.26683
C         66.83696       51.84777      107.24248
O         66.73040       52.82095      106.50845
C         67.71983       52.90620      109.39407
C         66.47022       52.64096      110.24919
O         68.86046       53.02326      110.20942
H         67.95058       50.26010      109.71788
H         68.85673       52.23987      107.72455
H         67.56639       53.89674      108.91125
H         68.93215       52.20094      110.76046
H         66.53980       51.67578      110.79001
H         66.35802       53.45129      111.00103
H         65.56196       52.63144      109.61596
N         65.96269       50.80419      107.12617
C         64.96407       50.72639      106.05591
C         65.14170       49.44539      105.26301
O         65.93433       48.59788      105.64830
C         63.50843       50.84677      106.58050
C         63.17377       49.75970      107.63010
C         63.25008       52.26601      107.11504
C         61.66830       49.59885      107.84091
H         66.01907       50.02579      107.79989
H         65.12358       51.55129      105.32643
H         62.83711       50.70742      105.70538
H         63.68086       49.98991      108.59294
H         63.53733       48.77116      107.27843
H         63.46830       53.01478      106.32267
H         62.19090       52.40160      107.40996
H         63.89473       52.48395      107.98914
H         61.19153       49.29547      106.88270
H         61.48304       48.79928      108.58796
H         61.19610       50.53330      108.20142
N         64.45382       49.26328      104.09912
C         64.68542       48.11191      103.23523
C         64.25847       48.43512      101.80314
O         63.63183       47.62245      101.14459
C         63.99761       46.86522      103.84701
C         64.30501       45.55825      103.16991
O         63.74423       44.43283      103.64753
O         65.06431       45.49330      102.21633
H         63.83649       50.02277      103.77296
H         65.78680       47.95902      103.17986
H         62.89695       47.02769      103.84077
H         64.31612       46.75107      104.90458
N         64.59218       49.64654      101.27227
C         64.35009       50.09127       99.90021
C         62.93564       49.80602       99.38466
O         61.98389       50.21604      100.03384
C         64.67262       51.60815       99.81952
C         64.42992       52.22176       98.46088
C         65.50846       52.52262       97.61512
C         63.12152       52.52277       98.03527
C         65.27980       53.09172       96.35866
C         62.89799       53.09615       96.78323
C         63.97611       53.37674       95.94270
H         65.08333       50.30801      101.89355
H         65.08484       49.56493       99.26545
H         65.74426       51.72536      100.09560
H         64.08496       52.18328      100.57015
H         66.52369       52.30667       97.92300
H         62.27058       52.32884       98.67357
H         66.11445       53.31241       95.70741
H         61.88789       53.32508       96.46811
H         63.80071       53.81963       94.97163
N         62.72159       49.17542       98.17345
C         61.41363       48.98928       97.53790
C         60.37601       48.22549       98.33713
O         59.22432       48.18214       97.92817
C         61.74051       48.15955       96.28820
C         63.10469       48.67479       95.91671
C         63.78680       48.76027       97.27597
H         61.03094       50.00490       97.29364
H         61.88741       47.09201       96.58356
H         60.97502       48.19998       95.48525
H         63.66015       48.07508       95.16439
H         62.96756       49.70856       95.52457
H         64.18269       47.78082       97.62491
H         64.60191       49.50714       97.16705
N         60.73044       47.54756       99.45257
C         59.82430       46.75741      100.26452
C         59.21267       47.66054      101.31462
O         57.99852       47.65703      101.46115
C         60.60950       45.57922      100.86943
C         61.14119       44.64447       99.75548
C         62.04159       43.60727      100.34996
O         61.55407       42.77996      101.29165
O         63.22386       43.56692      100.04600
H         61.71774       47.54753       99.72473
H         59.01122       46.30826       99.64897
H         59.95650       44.99404      101.55358
H         61.46037       45.97935      101.46478
H         61.71887       45.22615       99.00402
H         60.29157       44.15265       99.23330
N         59.99398       48.52563      102.02463
C         59.46841       49.49089      102.96901
H         58.37357       49.38599      103.11942
H         59.97723       49.36794      103.94669
H         59.66825       50.51645      102.58901
H         61.00948       48.54720      101.85275
Ca        62.88010       41.79829      102.81750
O         63.67328       40.12685      100.12442
H         64.46345       39.91137       99.56792
H         63.55126       39.33113      100.70111
O         66.28765       43.06568      100.09432
H         66.92866       43.72910      100.45323
H         66.79596       42.58535       99.39357
O         66.69234       43.03336      103.33174
H         67.36342       42.38789      103.66771
H         67.22925       43.74420      102.89957
O         66.48962       40.33184      101.74132
H         67.26079       40.53183      101.15580
H         66.52674       39.35045      101.86206

Ca 1.0



