%chk=apoCaM-CA-Ng.loop2.water3.frame152.chk
%nprocshared=20
%mem=10GB
%nosave
#b3lyp/svp scf=(tight,noincore,xqc) Test 
#IOP(5/87=12) Density=Current Pop=(MK,readradii) iop(6/33=2) iop(6/42=6)

apoCaM-CA-Ng.loop2.water3.frame152 

   -2  1 
C         65.50892       54.36152       45.85782
C         66.44085       55.11067       44.95232
O         67.00520       56.11431       45.36484
H         64.49411       54.33051       45.40910
H         65.87920       53.32246       45.98985
H         65.44837       54.84757       46.85466
N         66.66417       54.65665       43.68797
C         67.60296       55.29115       42.76668
C         67.14040       56.67466       42.28140
O         67.88825       57.28056       41.53569
C         67.85924       54.33769       41.57387
C         69.00802       54.77963       40.70869
O         68.83586       55.00289       39.52143
O         70.23953       54.91127       41.23949
H         66.19229       53.78421       43.40000
H         68.57052       55.40216       43.30597
H         66.93045       54.23233       40.97042
H         68.13009       53.33375       41.96871
N         65.93460       57.21967       42.64121
C         65.38693       58.51899       42.23165
C         66.15045       59.75207       42.81987
O         65.22906       60.78930       43.04348
C         65.16846       58.59482       40.71004
H         65.30923       56.66413       43.23948
H         64.37124       58.56470       42.68692
H         64.66168       59.54667       40.44309
H         66.12570       58.54059       40.15180
H         64.52938       57.75054       40.37537
N         67.18807       60.25413       41.90351
C         67.98247       61.39810       42.38817
C         69.21106       61.00580       43.21403
O         70.01375       61.88462       43.49733
C         68.34435       62.29137       41.17810
C         69.21114       61.66571       40.11355
O         69.68561       60.41083       40.22912
O         69.49174       62.31757       39.12051
H         67.80500       59.52553       41.50529
H         67.35839       62.05487       43.03301
H         68.85357       63.20969       41.54359
H         67.39141       62.60827       40.69886
N         69.39869       59.73952       43.69538
C         70.52976       59.35312       44.52994
C         70.64059       60.23915       45.75163
O         71.69610       60.81549       45.97469
H         68.69645       59.01109       43.51129
H         71.47072       59.40559       43.93882
H         70.38890       58.29935       44.85566
N         69.55602       60.45458       46.54486
C         69.56196       61.41663       47.64415
C         70.29161       60.86915       48.84957
O         69.90240       59.82819       49.36187
C         68.12790       61.81830       48.02938
C         67.49425       62.61686       46.91306
N         67.16772       63.91673       47.09932
O         67.30077       62.09894       45.82444
H         68.66970       59.99450       46.28393
H         70.05842       62.35562       47.30814
H         68.17945       62.45886       48.93645
H         67.51102       60.92648       48.27704
H         67.33995       64.38269       48.00165
H         66.75976       64.46862       46.33157
N         71.36617       61.53549       49.36499
C         72.11287       61.04357       50.50883
C         71.32374       61.08428       51.79961
O         70.30122       61.75165       51.88182
H         71.69502       62.39878       48.90699
H         73.02962       61.65257       50.66312
H         72.42994       60.00186       50.28873
N         71.76486       60.34822       52.86023
C         71.11805       60.29871       54.17615
C         69.66184       59.81186       54.14914
O         69.02346       59.84822       55.19086
C         71.95015       59.41816       55.15846
C         72.03882       57.93461       54.73841
O         73.23402       59.96603       55.34534
H         72.62705       59.80607       52.70947
H         71.10251       61.33546       54.57930
H         71.45304       59.43302       56.15269
H         73.82001       59.67340       54.59998
H         72.52119       57.80950       53.74685
H         72.63087       57.36357       55.48373
H         71.03145       57.48568       54.69251
N         69.07536       59.34476       53.01136
C         67.68829       58.89467       52.91165
C         66.93599       59.74938       51.89668
O         67.51910       60.63545       51.28883
C         67.64857       57.37368       52.52248
C         68.54116       57.05871       51.28677
C         68.02875       56.51751       53.73932
C         68.42677       55.62481       50.77399
H         69.62969       59.29958       52.15179
H         67.14677       59.02808       53.87403
H         66.60559       57.08797       52.27798
H         69.61189       57.22901       51.52908
H         68.25390       57.73337       50.45214
H         67.91396       55.43663       53.52451
H         69.06792       56.71358       54.05272
H         67.34913       56.74737       54.58824
H         68.76670       54.89405       51.53506
H         67.38100       55.40275       50.47809
H         69.08336       55.50637       49.88530
N         65.62104       59.48750       51.64030
C         64.87821       60.08696       50.53738
C         63.42735       60.40970       50.96537
O         62.61987       60.73930       50.10778
C         64.97592       59.03548       49.40439
C         64.78593       59.45445       47.96889
O         64.95519       58.60567       47.10767
O         64.53723       60.71568       47.57213
H         65.17882       58.69413       52.12577
H         65.38655       61.00884       50.17701
H         64.32455       58.17052       49.65074
H         66.02728       58.66632       49.39830
N         63.03526       60.34330       52.28304
C         61.66737       60.55366       52.77639
C         60.75721       59.42491       52.30966
O         61.05459       58.28988       52.64991
C         61.66186       60.53519       54.33292
C         60.26603       60.55099       54.93058
C         59.41903       61.66148       54.78021
C         59.79676       59.42642       55.63798
C         58.12681       61.64227       55.32043
C         58.50609       59.41081       56.17310
C         57.67075       60.51753       56.01401
H         63.74896       60.14115       52.99666
H         61.31210       61.54829       52.44147
H         62.25426       61.38583       54.73250
H         62.17126       59.60103       54.66047
H         59.75649       62.53886       54.24460
H         60.42440       58.55323       55.76673
H         57.47588       62.49833       55.20024
H         58.15301       58.53808       56.70838
H         56.67056       60.50202       56.42851
N         59.59756       59.63022       51.61108
C         58.69203       58.56120       51.20733
C         59.37051       57.49680       50.36621
O         59.17131       56.31792       50.62205
C         57.61184       59.28734       50.39593
C         57.56382       60.62791       51.09100
C         59.04923       60.92701       51.26504
H         58.23561       58.11405       52.12027
H         57.97155       59.48450       49.36061
H         56.64409       58.74330       50.33937
H         56.98758       61.41913       50.56737
H         57.11622       60.47150       52.10173
H         59.51796       61.27509       50.31833
H         59.14307       61.68999       52.06055
N         60.21412       57.85525       49.35533
C         60.88462       56.89376       48.47747
C         61.78908       55.92247       49.23215
O         62.15683       54.90907       48.65420
C         61.74091       57.63298       47.43019
C         60.91850       58.51879       46.48270
C         61.81972       59.31164       45.58259
O         62.58903       58.74670       44.82179
O         61.78131       60.65754       45.61510
H         60.37867       58.86250       49.21241
H         60.09874       56.29647       47.96455
H         62.31146       56.90088       46.81617
H         62.46044       58.26460       47.98643
H         60.29630       59.23708       47.05368
H         60.24473       57.88411       45.86999
N         62.20570       56.16992       50.50425
C         63.02095       55.26440       51.28645
H         63.97172       55.76716       51.56130
H         62.47520       55.00200       52.21827
H         63.25329       54.32542       50.74338
H         61.95066       57.05318       50.94633
Ca        64.77586       60.88842       45.30225
O         62.38971       61.76460       42.86045
H         62.92904       62.26449       42.19748
H         62.37381       60.83526       42.51846
O         64.92008       63.91360       44.37244
H         65.77386       64.15625       43.93376
H         64.63382       64.74210       44.83305
O         62.67215       63.48214       46.55704
H         62.73401       63.43664       47.54412
H         62.48509       64.43498       46.36286

Ca 1.0



