%chk=apoCaM-CA-Ng.loop2.water3.frame541.chk
%nprocshared=20
%mem=10GB
%nosave
#b3lyp/svp scf=(tight,noincore,xqc) Test 
#IOP(5/87=12) Density=Current Pop=(MK,readradii) iop(6/33=2) iop(6/42=6)

apoCaM-CA-Ng.loop2.water3.frame541 

   -2  1 
C         78.33042       35.88648       53.51454
C         77.73426       35.17725       52.33265
O         77.51213       35.81429       51.31287
H         79.30003       36.34166       53.22313
H         77.64156       36.68642       53.85842
H         78.51014       35.18851       54.35947
N         77.42810       33.85154       52.40246
C         76.85379       33.11507       51.28308
C         77.87432       32.99961       50.16523
O         78.93607       32.43667       50.39487
C         76.40937       31.71224       51.74803
C         75.74951       30.93356       50.64361
O         76.26684       29.75528       50.24718
O         74.73873       31.36008       50.10785
H         77.58952       33.35676       53.29387
H         75.94164       33.65148       50.93687
H         75.67956       31.82019       52.58007
H         77.28659       31.14530       52.13076
N         77.61354       33.49304       48.91985
C         78.57088       33.37700       47.81870
C         79.83945       34.18743       48.11987
O         79.78844       34.99794       49.03548
C         77.90487       33.85015       46.51860
H         76.69641       33.93411       48.74862
H         78.80158       32.30266       47.71298
H         76.98533       33.25314       46.33726
H         77.62446       34.92181       46.59547
H         78.54840       33.72026       45.63374
N         81.02731       34.06840       47.44282
C         81.32994       33.13196       46.35833
C         81.20605       31.67657       46.77200
O         81.01220       31.38494       47.94391
C         82.73267       33.41962       45.75696
C         83.92187       33.38173       46.69634
O         85.01940       33.67578       46.25061
O         83.81301       33.12915       48.01763
H         81.78033       34.71089       47.73602
H         80.61288       33.30224       45.53749
H         82.70150       34.44476       45.32720
H         82.92986       32.72073       44.91681
N         81.27814       30.69725       45.82313
C         81.14040       29.28156       46.12262
C         79.77254       28.93475       46.67476
O         78.92981       29.81291       46.79126
H         81.43861       30.96102       44.83952
H         81.91831       28.99472       46.86176
H         81.29745       28.69810       45.18990
N         79.45684       27.67386       47.08125
C         80.33797       26.51409       46.99017
C         80.82666       26.08622       48.36831
O         81.45106       25.03881       48.46976
C         79.58748       25.37335       46.27167
C         79.20587       25.76405       44.86296
N         77.91008       25.77931       44.47133
O         80.08080       26.06364       44.06377
H         78.52837       27.52667       47.51026
H         81.25515       26.72857       46.40413
H         78.68266       25.09948       46.85790
H         80.23922       24.47533       46.20860
H         77.15468       25.52685       45.12467
H         77.65978       26.04351       43.50652
N         80.64259       26.87716       49.46752
C         81.11318       26.54215       50.80124
C         82.62356       26.48800       50.97638
O         83.03564       26.25973       52.10535
H         80.12724       27.76442       49.38133
H         80.67261       25.57052       51.11140
H         80.74107       27.32096       51.50234
N         83.51963       26.66095       49.95678
C         84.96406       26.55518       50.18298
C         85.47669       27.73906       50.99867
O         84.73082       28.68018       51.22469
C         85.73207       26.38091       48.84801
C         85.34735       25.06069       48.15949
O         85.46659       27.46346       47.99318
H         83.18204       26.82944       49.00051
H         85.15362       25.63461       50.77858
H         86.82263       26.32466       49.07389
H         86.28987       27.63135       47.46421
H         85.57940       24.20247       48.82776
H         84.26639       25.02762       47.90978
H         85.92650       24.93101       47.22122
N         86.74736       27.73832       51.49965
C         87.27641       28.79330       52.36444
C         88.38609       29.51991       51.63166
O         89.34502       28.88934       51.20923
C         87.78652       28.20462       53.71524
C         88.38661       29.33518       54.60041
C         86.63970       27.47899       54.44650
C         88.98945       28.86069       55.92179
H         87.36512       26.94210       51.28088
H         86.47908       29.52981       52.61175
H         88.58661       27.46239       53.49911
H         87.60867       30.08992       54.81880
H         89.20743       29.84090       54.04921
H         87.00180       26.99609       55.37642
H         85.82500       28.19012       54.70326
H         86.22018       26.66859       53.81492
H         89.79002       28.11526       55.73348
H         89.43273       29.73204       56.45038
H         88.21887       28.42539       56.58851
N         88.30936       30.87032       51.46444
C         89.28435       31.66014       50.72325
C         89.97740       32.70200       51.59795
O         91.15277       32.94676       51.36651
C         88.58175       32.35035       49.54160
C         87.90203       31.35191       48.64336
O         88.54836       30.47816       48.08693
O         86.57111       31.41676       48.45403
H         87.49058       31.35841       51.84892
H         90.07688       31.00694       50.29337
H         89.32808       32.91663       48.94279
H         87.82339       33.06724       49.92575
N         89.31246       33.40289       52.56574
C         89.92579       34.46598       53.36632
C         88.84407       35.17941       54.18207
O         88.85107       35.08604       55.40421
C         91.07515       33.92402       54.26471
C         91.74535       35.04335       55.04259
C         92.35823       36.11743       54.36812
C         91.75296       35.03151       56.44956
C         92.94940       37.16144       55.08617
C         92.34952       36.07714       57.16322
C         92.94369       37.14249       56.48228
H         88.31855       33.19634       52.72474
H         90.37217       35.21206       52.68070
H         91.85658       33.43633       53.64827
H         90.66734       33.15329       54.95568
H         92.37394       36.15500       53.28684
H         91.29188       34.21842       56.99579
H         93.40979       37.98762       54.55925
H         92.34772       36.06440       58.24555
H         93.39994       37.95339       57.03593
N         87.86761       35.92889       53.57756
C         86.81545       36.63712       54.29742
C         85.91607       35.75508       55.14732
O         85.12610       36.28632       55.91357
C         85.95901       37.23732       53.17522
C         86.98228       37.48960       52.09544
C         87.82487       36.21933       52.15844
H         87.31575       37.41001       54.92404
H         85.28271       36.44757       52.76796
H         85.34007       38.10845       53.47654
H         86.57138       37.71672       51.08932
H         87.60891       38.34681       52.43287
H         87.35346       35.36120       51.63296
H         88.81537       36.45739       51.71907
N         85.92507       34.40085       55.00001
C         85.07451       33.50713       55.76059
C         85.57904       33.49111       57.18716
O         84.82447       33.82317       58.09112
C         85.09252       32.06788       55.18081
C         84.25695       31.81778       53.89934
C         84.71036       32.37644       52.57172
O         84.05737       32.11257       51.57909
O         85.81600       33.11577       52.42266
H         86.57332       33.98349       54.33301
H         84.01734       33.85668       55.73459
H         84.60537       31.42268       55.94620
H         86.12897       31.70604       55.05228
H         83.21800       32.16540       54.08460
H         84.22504       30.71529       53.75842
N         86.86572       33.12435       57.45089
C         87.43767       33.09215       58.78003
H         88.29987       33.79044       58.82288
H         86.70729       33.38493       59.56281
H         87.79686       32.06483       58.99804
H         87.48391       32.86154       56.66808
Ca        83.52260       31.07929       48.93206
O         84.45047       29.83866       46.59335
H         85.15026       30.44708       46.24881
H         84.36417       29.13240       45.90627
O         82.11800       29.86131       51.33517
H         82.45927       29.48378       52.18440
H         81.16599       30.05826       51.51656
O         82.01719       33.55205       50.35770
H         81.49772       32.80198       50.74090
H         81.94793       34.27448       51.03019

Ca 1.0



