%chk=apoCaM-CA-Ng.loop4.water5.frame891.chk
%nprocshared=20
%mem=10GB
%nosave
#b3lyp/svp scf=(tight,noincore,xqc) Test 
#IOP(5/87=12) Density=Current Pop=(MK,readradii) iop(6/33=2) iop(6/42=6)

apoCaM-CA-Ng.loop4.water5.frame891 

   -3  1 
C         22.18613      -12.25244       -4.35820
C         22.09493      -13.02019       -5.64040
O         21.02072      -13.50109       -5.96677
H         22.50622      -11.21121       -4.57426
H         21.19896      -12.22188       -3.84886
H         22.92448      -12.73475       -3.68530
N         23.19751      -13.15813       -6.43196
C         23.21066      -13.84757       -7.71733
C         22.26394      -13.13259       -8.66960
O         21.07354      -13.40839       -8.66555
C         22.94252      -15.35876       -7.53115
C         23.12561      -16.14788       -8.79526
O         24.19392      -16.12818       -9.38597
O         22.12871      -16.92867       -9.25039
H         24.08024      -12.72698       -6.11608
H         24.24410      -13.75547       -8.12308
H         21.92212      -15.53536       -7.13138
H         23.67106      -15.75100       -6.78806
N         22.72585      -12.07662       -9.39775
C         21.87518      -11.16066      -10.15410
C         22.29803      -11.17131      -11.61973
O         23.47880      -10.98121      -11.87654
C         22.01783       -9.72664       -9.54652
C         21.55737       -9.73080       -8.06184
C         21.21880       -8.68925      -10.36461
C         21.74308       -8.39235       -7.34343
H         23.73320      -11.85543       -9.35272
H         20.81039      -11.44744      -10.05878
H         23.09124       -9.43352       -9.58646
H         22.15218      -10.47781       -7.49534
H         20.48651      -10.02513       -8.00059
H         21.54946       -8.67604      -11.42374
H         20.13203       -8.90992      -10.32700
H         21.38803       -7.66240       -9.98494
H         21.11267       -7.59719       -7.78936
H         21.43433       -8.50080       -6.28216
H         22.80913       -8.08347       -7.37356
N         21.41780      -11.30930      -12.66095
C         19.96528      -11.42652      -12.52174
C         19.50698      -12.79297      -12.02356
O         18.31901      -12.94010      -11.76909
C         19.24889      -11.00708      -13.82411
C         19.60646      -11.84151      -15.02044
O         20.18863      -11.26205      -16.08824
O         19.35563      -13.03507      -15.04301
H         21.80886      -11.22027      -13.61188
H         19.62751      -10.67239      -11.78136
H         19.52324       -9.94922      -14.03608
H         18.14771      -11.03749      -13.67269
N         20.37786      -13.81869      -11.79937
C         19.96836      -15.04958      -11.14596
C         19.07893      -15.94834      -11.96556
O         18.85817      -15.70813      -13.14421
H         21.38154      -13.69886      -11.99514
H         19.45778      -14.79102      -10.19449
H         20.86962      -15.64378      -10.90493
N         18.54655      -17.04591      -11.35683
C         17.77103      -18.07526      -12.03468
C         16.29868      -18.06751      -11.63989
O         15.57095      -18.89465      -12.17113
C         18.46127      -19.45124      -11.82489
C         18.74892      -19.81899      -10.38715
O         19.90344      -19.96037      -10.01562
O         17.75475      -20.02517       -9.51035
H         18.71794      -17.16692      -10.34614
H         17.76028      -17.89328      -13.13159
H         19.43773      -19.41128      -12.35486
H         17.86128      -20.26028      -12.29461
N         15.75450      -17.13860      -10.79315
C         14.32036      -17.08795      -10.51416
C         13.79923      -18.28839       -9.74150
O         12.59480      -18.39255       -9.56388
H         16.34900      -16.40704      -10.37786
H         13.77950      -17.00968      -11.48253
H         14.08484      -16.17806       -9.92049
N         14.65280      -19.21398       -9.22588
C         14.27822      -20.39719       -8.46534
C         13.59383      -20.03615       -7.16217
O         12.73086      -20.77515       -6.70517
C         13.51563      -21.42764       -9.32905
C         14.37241      -21.87801      -10.52453
C         13.67552      -22.92097      -11.35744
N         13.42101      -22.70199      -12.66918
O         13.35312      -23.98394      -10.84797
H         15.65584      -19.06357       -9.33912
H         15.22670      -20.88708       -8.14880
H         12.55582      -20.99771       -9.68855
H         13.28766      -22.32125       -8.70725
H         15.32809      -22.30841      -10.15418
H         14.61228      -20.99930      -11.15467
H         13.69289      -21.81717      -13.12232
H         12.95549      -23.42398      -13.23873
N         13.99073      -18.92745       -6.47357
C         13.52670      -18.59440       -5.13331
C         14.69498      -18.39007       -4.16179
O         14.42296      -18.21653       -2.98450
C         12.60242      -17.34403       -5.15791
C         13.31115      -16.08955       -5.69558
C         11.33258      -17.62060       -5.97699
H         14.65704      -18.28711       -6.92804
H         12.92613      -19.43773       -4.72345
H         12.27683      -17.13331       -4.11474
H         12.62546      -15.21709       -5.64533
H         14.20770      -15.85438       -5.08499
H         13.61959      -16.22395       -6.75358
H         10.65049      -16.74474       -5.93645
H         11.57871      -17.82648       -7.03955
H         10.79063      -18.49645       -5.55996
N         16.00605      -18.36270       -4.57372
C         17.12950      -18.11450       -3.66977
C         18.13583      -19.26759       -3.78845
O         18.00644      -20.08237       -4.68822
C         17.75164      -16.75374       -4.07630
C         18.69405      -16.09172       -3.09519
N         19.34780      -14.96642       -3.46203
O         18.85485      -16.53257       -1.96982
H         16.24321      -18.47641       -5.56521
H         16.75532      -18.05360       -2.62629
H         16.93146      -16.01753       -4.22635
H         18.26228      -16.88883       -5.05521
H         19.21912      -14.57149       -4.40408
H         19.99181      -14.49625       -2.80860
N         19.13704      -19.42700       -2.87372
C         20.08427      -20.54445       -2.92314
C         20.74235      -20.77897       -1.56572
O         20.50958      -20.02105       -0.63978
C         21.13766      -20.36316       -4.05212
C         22.10185      -19.20447       -3.85959
C         21.66135      -17.87198       -3.92527
C         23.47103      -19.45277       -3.64584
C         22.56339      -16.81225       -3.77020
C         24.37177      -18.39323       -3.49357
C         23.92302      -17.07100       -3.55132
O         24.80528      -16.06186       -3.40129
H         19.15730      -18.79350       -2.07399
H         19.50254      -21.47053       -3.12365
H         20.63620      -20.24861       -5.03650
H         21.72140      -21.30589       -4.11419
H         20.62424      -17.65162       -4.11277
H         23.84662      -20.46708       -3.59669
H         22.20749      -15.79099       -3.82718
H         25.42235      -18.60104       -3.33151
H         24.53895      -15.13189       -3.43570
N         21.56044      -21.85677       -1.37427
C         22.20022      -22.14468       -0.09665
C         23.70686      -22.09851       -0.26929
O         24.28590      -23.11471       -0.62741
C         21.75438      -23.51748        0.44818
C         20.26738      -23.53777        0.82284
C         19.88826      -24.86701        1.41026
O         19.43965      -24.94071        2.67816
O         19.98526      -25.88576        0.74460
H         21.73774      -22.50057       -2.15807
H         21.90845      -21.41575        0.67568
H         22.33932      -23.73597        1.37005
H         21.96971      -24.31161       -0.30165
H         19.63691      -23.33833       -0.06956
H         20.07538      -22.74353        1.57754
N         24.44065      -20.95964       -0.09648
C         23.90095      -19.64156        0.23325
C         23.28898      -19.57494        1.62083
O         23.87658      -20.08706        2.56396
C         24.97773      -18.55360        0.07299
C         26.12464      -18.58374        1.09535
C         27.11500      -17.52631        0.71657
O         27.72374      -17.61338       -0.33776
O         27.29016      -16.44268        1.49197
H         25.45365      -21.03364       -0.28146
H         23.13475      -19.38242       -0.52982
H         24.48523      -17.55707        0.14273
H         25.39585      -18.65256       -0.94942
H         26.63554      -19.56919        1.11924
H         25.72130      -18.36604        2.10737
N         22.11341      -18.91214        1.81223
C         21.46633      -18.77520        3.10070
H         20.43923      -19.19152        3.04081
H         22.01428      -19.30195        3.90940
H         21.40090      -17.69823        3.36408
H         21.65912      -18.45273        1.00947
Ca        28.49633      -14.75773        0.59702
O         27.89288      -13.42672        3.25617
H         28.77265      -13.88043        3.28976
H         27.98443      -12.76041        2.52907
O         30.76799      -13.00104        1.27188
H         31.30603      -12.51287        0.59971
H         31.27294      -13.83665        1.43714
O         30.25966      -16.67969        2.09410
H         31.16509      -16.58250        1.70610
H         30.39089      -16.56677        3.06871
O         28.14856      -15.50198       -2.59233
H         27.44302      -16.19612       -2.59325
H         28.72025      -15.73115       -3.36739
O         31.07821      -15.56266       -1.02244
H         30.97759      -15.73841       -1.99135
H         32.00754      -15.23566       -0.92443

Ca 1.0



