%chk=apoCaM-CA-Ng.loop4.water3.frame414.chk
%nprocshared=20
%mem=10GB
%nosave
#b3lyp/svp scf=(tight,noincore,xqc) Test 
#IOP(5/87=12) Density=Current Pop=(MK,readradii) iop(6/33=2) iop(6/42=6)

apoCaM-CA-Ng.loop4.water3.frame414 

   -3  1 
C         79.36516       61.25523       10.24887
C         79.42994       59.76310        9.94156
O         79.61597       59.60594        8.56502
H         80.30780       61.73318        9.90323
H         78.51479       61.72020        9.70606
H         79.25879       61.42701       11.33878
N         78.21964       59.02925       10.35732
C         78.46609       57.95697       11.34645
C         79.84702       57.28089       11.23570
O         80.08029       56.51348       10.32283
C         77.29506       56.93097       11.34138
C         76.63838       56.57349       10.00802
O         77.31905       56.17532        8.91280
O         75.42213       56.64921        9.92289
H         77.46828       59.66653       10.71516
H         78.46172       58.42469       12.35629
H         76.47512       57.35773       11.96208
H         77.62000       56.00409       11.86053
N         80.81267       57.57216       12.16376
C         82.19725       57.08193       12.21830
C         82.29470       55.60258       12.57064
O         82.74202       55.30445       13.67042
C         83.03797       57.43780       10.95247
C         84.51998       56.97252       11.06529
C         82.97626       58.94139       10.64013
C         85.33497       57.64547       12.17806
H         80.56621       58.25342       12.89833
H         82.65967       57.62651       13.07229
H         82.60610       56.90297       10.07987
H         85.03149       57.17318       10.09910
H         84.55438       55.87424       11.22602
H         81.93630       59.25121       10.44275
H         83.35392       59.54989       11.48676
H         83.57448       59.16940        9.73219
H         85.40447       58.74071       12.01781
H         84.90168       57.44603       13.17880
H         86.36866       57.24116       12.17053
N         81.94816       54.61738       11.69334
C         82.10159       53.20502       12.00624
C         83.57143       52.78284       11.92263
O         84.08057       52.40081       12.96717
C         81.12026       52.34439       11.19089
C         79.67536       52.60682       11.54522
O         78.79777       51.96354       10.99311
O         79.33269       53.52664       12.47032
H         81.59089       54.86089       10.76455
H         81.78385       53.03925       13.06322
H         81.32240       51.27291       11.40688
H         81.23729       52.54139       10.11154
N         84.37819       52.83906       10.81366
C         84.03617       53.24521        9.45797
C         83.33866       52.14802        8.67456
O         83.01201       51.12360        9.25693
H         85.37207       52.59744       10.95699
H         84.99281       53.41337        8.92101
H         83.48865       54.20685        9.46584
N         83.10521       52.23002        7.32859
C         83.58303       53.30144        6.44827
C         83.01366       54.66021        6.81551
O         81.98797       54.69950        7.48018
C         83.23282       52.96651        4.96849
C         81.74905       52.99276        4.67203
O         81.31025       53.76488        3.83399
O         80.90060       52.16162        5.30664
H         82.62818       51.42302        6.89776
H         84.68781       53.32876        6.55037
H         83.63307       51.96237        4.71393
H         83.72132       53.68314        4.28456
N         83.55558       55.84023        6.39316
C         84.80014       56.03727        5.66553
C         86.02209       55.88625        6.53684
O         85.90993       55.55806        7.70920
H         83.04020       56.69253        6.61841
H         84.82594       57.09187        5.31578
H         84.86215       55.40346        4.76574
N         87.24368       56.17056        6.00340
C         88.49357       56.11089        6.75138
C         89.15652       57.48177        6.89603
O         90.14670       57.54207        7.61514
C         89.42021       55.01018        6.17516
C         89.60892       55.00370        4.64757
C         90.23817       56.25294        4.11402
N         91.48676       56.60226        4.48730
O         89.62440       56.94667        3.31732
H         87.28440       56.46009        5.01495
H         88.29355       55.80704        7.80323
H         88.95537       54.02991        6.41918
H         90.40256       55.03677        6.69640
H         88.62452       54.83969        4.15956
H         90.25321       54.14181        4.36992
H         92.02871       56.02344        5.14430
H         91.91536       57.44898        4.10303
N         88.63952       58.63229        6.35343
C         89.11292       59.96566        6.74393
C         89.68499       60.80934        5.61086
O         90.13828       61.90311        5.91293
C         87.96391       60.76270        7.43850
C         87.40204       60.00751        8.65167
C         86.81853       61.12456        6.47437
H         87.82302       58.57646        5.72944
H         89.93643       59.87015        7.48593
H         88.38833       61.72067        7.81505
H         88.21221       59.79356        9.37966
H         86.63164       60.62572        9.16148
H         86.92990       59.05050        8.34236
H         87.19197       61.72365        5.61706
H         86.30947       60.22133        6.08090
H         86.07140       61.74612        7.00924
N         89.68667       60.41181        4.30438
C         90.18041       61.28253        3.23468
C         89.10289       61.62799        2.21693
O         89.43769       62.36902        1.29766
C         91.39429       60.63846        2.52707
C         92.60085       60.50949        3.42732
N         93.15968       61.59778        4.00665
O         93.10446       59.41434        3.60981
H         89.32240       59.48477        4.05038
H         90.51030       62.26244        3.63679
H         91.70966       61.28181        1.67693
H         91.10368       59.64623        2.11492
H         92.77481       62.54024        3.85384
H         93.99128       61.49749        4.60771
N         87.80838       61.19059        2.28854
C         86.83118       61.51347        1.24359
C         85.40720       61.10137        1.57791
O         85.20145       60.08380        2.22386
C         87.25465       60.89393       -0.11913
C         87.63367       59.42690       -0.01006
C         88.98204       59.05152       -0.15433
C         86.67939       58.42663        0.24701
C         89.36720       57.71537       -0.02239
C         87.06566       57.09019        0.37729
C         88.40919       56.72977        0.24865
O         88.76720       55.43773        0.38793
H         87.50786       60.61766        3.09268
H         86.80058       62.62135        1.13228
H         88.13970       61.45416       -0.47962
H         86.47541       61.04909       -0.89682
H         89.74304       59.79592       -0.35292
H         85.63495       58.66489        0.34623
H         90.41146       57.44982       -0.12527
H         86.31775       56.33432        0.58223
H         89.68810       55.14934        0.31505
N         84.37614       61.81752        1.03110
C         82.94943       61.49700        1.07413
C         82.25704       61.77088        2.40506
O         81.22484       62.42949        2.37118
C         82.61648       60.12887        0.45355
C         83.11927       60.05105       -1.01344
C         82.03958       59.60934       -1.95814
O         82.17585       58.60160       -2.63135
O         80.93098       60.36328       -2.10114
H         84.62603       62.63416        0.45019
H         82.44862       62.21415        0.37961
H         81.50597       60.05315        0.47084
H         82.99972       59.27122        1.04685
H         84.00580       59.38729       -1.07258
H         83.44040       61.04895       -1.38399
N         82.75490       61.37241        3.60974
C         82.13542       61.73984        4.88129
C         81.96519       63.24497        4.94803
O         80.85079       63.70468        5.15684
C         82.99992       61.28001        6.07836
C         83.20889       59.76217        6.20829
C         81.93544       59.02418        6.50053
O         81.04365       58.95485        5.67062
O         81.79486       58.39211        7.68003
H         83.63012       60.85077        3.64187
H         81.12862       61.27806        4.95726
H         82.53968       61.64181        7.02484
H         83.99799       61.75362        5.98548
H         83.90217       59.60016        7.06287
H         83.69367       59.33362        5.30712
N         83.02575       64.06966        4.72144
C         82.92159       65.51360        4.70235
H         81.89508       65.86815        4.93353
H         83.62089       65.94273        5.44809
H         83.19665       65.88363        3.69196
H         83.94856       63.65840        4.51497
Ca        78.99686       57.46124        8.19964
O         77.45179       58.73777        6.08524
H         76.99337       58.72273        6.96322
H         78.08309       59.49804        6.14844
O         79.39569       54.02582        8.56120
H         78.67343       53.99435        9.23661
H         79.06646       53.45927        7.81965
O         78.96060       55.98490        5.38409
H         79.79071       55.44823        5.33409
H         78.67951       56.09834        4.44144

Ca 1.0



