%chk=apoCaM-CA-Ng.loop1.water3.frame431.chk
%nprocshared=20
%mem=10GB
%nosave
#b3lyp/svp scf=(tight,noincore,xqc) Test 
#IOP(5/87=12) Density=Current Pop=(MK,readradii) iop(6/33=2) iop(6/42=6)

apoCaM-CA-Ng.loop1.water3.frame431 

   0  1 
C        108.74281       69.05178       72.90062
C        108.84781       69.20929       71.41044
O        108.03472       68.64583       70.69189
H        107.76061       69.43260       73.24904
H        108.84005       67.97986       73.17017
H        109.54272       69.61689       73.42624
N        109.83346       69.97777       70.87329
C        109.99791       70.20184       69.44004
C        110.49155       68.96852       68.68506
O        110.78041       69.12197       67.51458
C        111.02350       71.34215       69.20450
C        110.60154       72.63486       69.84408
O        109.55364       73.17031       69.51935
O        111.38992       73.21822       70.76683
H        110.47187       70.46511       71.52165
H        109.03282       70.53965       69.00212
H        111.13077       71.53772       68.11510
H        112.01772       71.03795       69.60074
N        110.66514       67.73629       69.24394
C        111.36827       66.66547       68.53923
C        110.47011       65.48410       68.20506
O        109.78846       65.01590       69.10558
C        112.56029       66.20762       69.39972
C        113.57421       67.34681       69.58547
C        114.78561       66.88644       70.39792
C        115.80358       68.02489       70.54256
N        116.96407       67.59221       71.31889
H        110.38195       67.55505       70.21529
H        111.78949       67.04993       67.60772
H        113.07504       65.36384       68.89585
H        112.19988       65.84655       70.38812
H        113.09115       68.20313       70.10505
H        113.91995       67.68768       68.58443
H        115.27010       66.02788       69.88268
H        114.44930       66.55788       71.40559
H        115.32451       68.89165       71.05045
H        116.13969       68.35226       69.53291
H        116.66624       67.30754       72.28022
H        117.43602       66.78949       70.84250
H        117.63995       68.38631       71.39432
N        110.45178       64.86013       66.97500
C        111.25462       65.19371       65.78850
C        112.75215       65.29395       66.11638
O        113.33245       66.35979       65.97178
C        110.69197       66.43025       65.05287
C        109.37875       66.19011       64.36346
O        108.87244       67.08945       63.71247
O        108.78230       64.98488       64.39653
H        109.85697       64.02075       66.88927
H        111.16294       64.37329       65.04481
H        111.37592       66.68636       64.22814
H        110.59723       67.28837       65.73896
N        113.47424       64.22566       66.55205
C        112.91004       62.89438       66.60429
C        113.88142       61.82370       67.05869
O        114.98782       62.13715       67.47306
H        114.46883       64.37425       66.78166
H        112.60319       62.64538       65.56500
H        112.03409       62.87224       67.28384
N        113.56050       60.49954       66.97090
C        112.30038       60.01323       66.41138
C        112.52507       59.48853       65.01051
O        113.66426       59.28503       64.61005
C        111.58984       59.02867       67.36152
C        112.33014       57.74880       67.66000
O        113.40790       57.49457       67.14643
O        111.78273       56.86266       68.51296
H        114.28362       59.81308       67.23316
H        111.58860       60.84958       66.28515
H        110.60107       58.75966       66.93161
H        111.41115       59.55645       68.32366
N        111.46831       59.36827       64.16155
C        111.61878       59.03027       62.75968
C        112.49421       60.03958       62.04674
O        113.49334       59.63786       61.46702
H        110.51900       59.57695       64.50723
H        110.61803       59.02876       62.27584
H        112.04810       58.00839       62.66587
N        112.17566       61.36942       62.04566
C        112.95675       62.37850       61.33168
C        113.49525       63.42504       62.30186
O        112.71529       64.10370       62.95393
C        112.09093       63.04395       60.23988
C        111.55800       62.00916       59.24006
O        112.86947       63.98605       59.55043
H        111.33001       61.67626       62.55109
H        113.81852       61.90144       60.81483
H        111.22956       63.55349       60.73264
H        112.24186       64.54878       59.02621
H        110.91815       61.25883       59.74972
H        110.94188       62.51587       58.46750
H        112.40061       61.48754       58.73772
N        114.84200       63.60055       62.43783
C        115.46626       64.55421       63.36229
C        115.30466       66.03444       62.96669
O        115.84455       66.87281       63.67433
C        116.96939       64.17016       63.62310
C        117.92072       64.14924       62.39174
C        117.03481       62.78996       64.31018
C        118.13002       65.49933       61.71302
H        115.44958       62.96812       61.90020
H        114.97425       64.44790       64.35069
H        117.38546       64.89424       64.35900
H        117.58971       63.40985       61.63406
H        118.92455       63.82328       62.74546
H        116.65674       61.98389       63.64671
H        118.08131       62.54319       64.59098
H        116.43169       62.79152       65.24194
H        118.49687       66.24630       62.44861
H        118.89342       65.38870       60.91373
H        117.20192       65.85891       61.23225
N        114.60232       66.43893       61.86458
C        114.52775       67.83469       61.39273
C        113.87360       68.84548       62.35262
O        113.88134       70.02383       62.02576
C        113.79143       67.91070       60.02336
C        112.30528       67.50104       60.10905
O        114.47764       67.16704       59.04435
H        114.16185       65.71207       61.29200
H        115.57314       68.17923       61.22898
H        113.80555       68.96633       59.67491
H        114.23475       66.21142       59.13702
H        112.18514       66.45792       60.46217
H        111.75638       68.16033       60.81233
H        111.83047       67.59228       59.11009
N        113.28427       68.47690       63.52348
C        112.63779       69.38144       64.48723
C        111.36483       70.04485       63.93472
O        111.12391       70.01111       62.73701
C        113.64029       70.41876       65.06806
C        114.87642       69.73461       65.66362
O        113.01977       71.17155       66.07771
H        113.30293       67.48309       63.76711
H        112.30656       68.74624       65.33243
H        113.96501       71.09856       64.24838
H        113.52395       72.02298       66.16093
H        115.42494       69.16545       64.88682
H        115.56874       70.49963       66.07459
H        114.58181       69.04446       66.48250
N        110.47039       70.61945       64.79816
C        109.23808       71.30681       64.42110
C        107.97312       70.53310       64.81023
O        106.89888       71.01835       64.47842
C        109.15523       72.64011       65.20795
C        110.28832       73.64495       64.97220
C        110.15874       74.77874       66.01205
C        111.19492       75.89975       65.86275
N        110.96400       76.70132       64.66080
H        110.67036       70.57912       65.79815
H        109.20987       71.47462       63.32230
H        109.14829       72.37231       66.29083
H        108.19636       73.15945       64.98433
H        110.21293       74.02369       63.93220
H        111.27772       73.15922       65.10987
H        110.29817       74.32694       67.01970
H        109.14169       75.22774       65.97897
H        112.22397       75.47796       65.85953
H        111.10218       76.56763       66.74890
H        111.08855       76.12579       63.79909
H        109.99879       77.10551       64.68312
H        111.65186       77.48823       64.64108
N        107.98610       69.38178       65.54995
C        106.75072       68.75888       66.03527
C        106.00547       69.73439       66.93079
O        106.55228       70.15483       67.94124
C        107.04324       67.44899       66.81889
C        105.79556       66.82987       67.49225
C        104.69592       66.49016       66.52237
O        103.63962       67.10049       66.56436
O        104.83797       65.48532       65.63784
H        108.88560       68.96279       65.81611
H        106.11462       68.49241       65.16396
H        107.78070       67.66257       67.62368
H        107.49339       66.70702       66.13416
H        105.40737       67.55363       68.24069
H        106.08013       65.91205       68.04925
N        104.73239       70.11051       66.62141
C        103.93479       70.99385       67.44688
H        103.01870       70.45718       67.77316
H        104.47861       71.33512       68.35240
H        103.63755       71.88384       66.85486
H        104.29073       69.74109       65.76604
Ca       106.55822       64.03085       65.75359
O        105.99542       66.25659       63.01647
H        106.23020       67.21102       63.13049
H        105.57962       66.21095       62.11951
O        106.90116       63.30656       62.08359
H        106.52705       62.83292       61.29847
H        107.53928       63.95894       61.69914
O        103.84884       63.88049       63.01862
H        102.97409       64.30096       63.21503
H        103.87651       63.81467       62.03093

Ca 1.0



