%chk=apoCaM-CA-Ng.loop3.water3.frame661.chk
%nprocshared=20
%mem=10GB
%nosave
#b3lyp/svp scf=(tight,noincore,xqc) Test 
#IOP(5/87=12) Density=Current Pop=(MK,readradii) iop(6/33=2) iop(6/42=6)

apoCaM-CA-Ng.loop3.water3.frame661 

   0  1 
C        -28.96641       51.12241       99.36557
C        -30.18530       51.95762       99.62631
O        -30.87989       51.71061      100.60201
H        -28.06351       51.76872       99.40065
H        -28.85924       50.32535      100.13247
H        -29.03809       50.65079       98.36379
N        -30.49699       52.98218       98.78270
C        -31.61460       53.89575       98.99072
C        -32.60185       53.79032       97.83412
O        -32.16842       53.74509       96.69101
C        -31.06065       55.32392       99.15011
C        -32.05749       56.31954       99.68341
O        -31.65706       57.58134       99.92388
O        -33.20237       55.99502       99.95340
H        -29.88777       53.14446       97.96558
H        -32.12039       53.65066       99.93661
H        -30.64267       55.67999       98.18484
H        -30.23872       55.29652       99.89299
N        -33.94936       53.73505       98.05787
C        -34.93015       53.55433       96.99115
C        -35.35736       54.86703       96.34945
O        -35.99095       54.80863       95.30432
C        -36.18520       52.82744       97.52245
C        -35.88911       51.41764       98.05937
C        -37.19241       50.74751       98.52940
C        -37.02150       49.27239       98.92897
N        -36.16509       49.09727      100.10210
H        -34.29708       53.82241       99.01847
H        -34.47238       52.92918       96.19254
H        -36.91826       52.72901       96.69147
H        -36.65150       53.44020       98.32690
H        -35.16641       51.47568       98.90091
H        -35.44180       50.81362       97.24029
H        -37.91930       50.76945       97.68816
H        -37.62886       51.31973       99.37779
H        -36.60938       48.69748       98.07021
H        -38.02942       48.86073       99.16046
H        -36.55900       49.62181      100.91655
H        -36.13218       48.07986      100.34269
H        -35.19160       49.41823       99.90315
N        -35.09860       56.07739       96.92287
C        -35.48239       57.35061       96.31724
C        -34.25044       58.23922       96.17594
O        -33.95662       58.66765       95.06887
C        -36.65553       58.01298       97.08374
C        -36.32102       58.50066       98.46001
O        -35.87766       57.65863       99.41126
O        -36.42231       59.69022       98.71356
H        -34.63377       56.09663       97.83762
H        -35.89567       57.17994       95.29754
H        -37.50136       57.29546       97.14657
H        -37.00025       58.88548       96.48302
N        -33.44994       58.50259       97.25188
C        -32.21644       59.27208       97.19305
C        -32.17881       60.41657       98.19063
O        -31.14547       61.06526       98.26827
H        -33.68595       58.08809       98.16074
H        -32.03170       59.67512       96.17454
H        -31.37926       58.58504       97.44035
N        -33.25047       60.73758       98.97539
C        -33.26389       61.84410       99.92714
C        -33.63343       61.34294      101.35601
O        -32.96002       60.15173      101.63669
C        -34.29040       62.88163       99.42206
C        -33.90486       63.39498       98.05552
N        -34.69397       63.16917       96.97892
O        -32.86143       64.01657       97.91986
H        -34.11937       60.21105       98.87029
H        -32.25923       62.31905       99.98097
H        -34.36714       63.75600      100.09715
H        -35.29157       62.39699       99.38070
H        -35.57263       62.63819       97.06608
H        -34.41883       63.51830       96.04870
N        -33.27935       62.35615      102.36471
C        -33.72620       62.05629      103.73420
C        -33.00529       60.88274      104.35761
O        -31.78585       60.82124      104.28162
H        -33.72977       63.26271      102.11042
H        -34.83172       61.93567      103.77841
H        -33.46725       62.93958      104.35772
N        -33.70178       59.94622      105.06241
C        -33.06188       58.81236      105.72604
C        -32.60120       57.76649      104.72132
O        -32.82498       57.91384      103.52984
C        -34.04647       58.15136      106.72860
C        -34.37877       59.03301      107.90793
C        -33.36495       59.44160      108.79407
C        -35.70481       59.41762      108.16223
C        -33.67326       60.22090      109.91214
C        -36.01115       60.19699      109.28286
C        -34.99950       60.59938      110.16181
O        -35.31330       61.34127      111.24313
H        -34.71825       60.08044      105.17975
H        -32.17327       59.16754      106.29163
H        -33.61067       57.23104      107.16720
H        -34.96566       57.84552      106.18511
H        -32.33601       59.14729      108.62924
H        -36.50329       59.10652      107.50065
H        -32.88182       60.52231      110.58732
H        -37.03813       60.48173      109.47262
H        -34.64459       61.62984      111.88084
N        -31.96511       56.64948      105.18153
C        -31.55528       55.48960      104.39815
C        -32.77443       54.83463      103.76658
O        -33.34513       55.40557      102.84735
C        -30.45387       55.81727      103.34642
C        -29.86257       54.53345      102.69738
C        -29.33606       56.69245      103.93971
C        -29.12285       53.59094      103.65856
H        -31.77283       56.58873      106.19236
H        -31.11875       54.78700      105.13793
H        -30.91240       56.41859      102.53093
H        -29.13872       54.83642      101.91117
H        -30.67593       53.96140      102.20310
H        -28.57457       56.91528      103.16176
H        -29.74749       57.66507      104.28252
H        -28.84613       56.20164      104.80422
H        -28.26641       54.10272      104.14350
H        -29.79675       53.18448      104.43843
H        -28.71862       52.72872      103.08839
N        -33.27059       53.66117      104.25139
C        -34.48294       53.04486      103.72086
C        -35.07223       52.06274      104.69693
O        -34.40405       51.10785      105.07764
C        -34.22830       52.30664      102.39832
O        -33.86962       53.20034      101.39647
H        -32.82097       53.24487      105.08209
H        -35.24574       53.83610      103.54316
H        -35.14350       51.75720      102.07271
H        -33.42292       51.55051      102.51946
H        -34.68778       53.72128      101.18808
N        -36.37246       52.20241      105.07791
C        -37.05790       51.22320      105.90641
C        -38.57687       51.41997      105.88171
O        -39.03691       52.47772      105.46821
C        -36.52306       51.28962      107.34861
H        -36.90535       52.98966      104.67732
H        -36.85405       50.23726      105.43562
H        -35.43182       51.09429      107.37901
H        -36.70657       52.30178      107.76871
H        -37.01308       50.55166      108.01184
N        -39.45791       50.44065      106.24277
C        -39.08514       49.10099      106.68658
C        -39.67826       48.81071      108.05715
O        -40.63336       49.47322      108.43325
C        -39.56161       48.08529      105.64826
H        -40.46568       50.64548      106.15312
H        -37.99368       49.01619      106.75576
H        -39.26692       47.05792      105.92894
H        -40.66577       48.12588      105.53803
H        -39.09627       48.31571      104.66526
N        -39.14258       47.89791      108.92335
C        -37.95636       47.08636      108.67736
C        -36.76741       47.61104      109.47423
O        -35.69780       47.02862      109.36902
C        -38.23994       45.61065      109.02669
C        -39.38279       45.02153      108.18820
C        -39.59273       43.57097      108.51265
O        -39.46781       42.72374      107.64252
O        -39.92634       43.19675      109.76253
H        -39.57294       47.82490      109.86005
H        -37.64786       47.11511      107.61587
H        -38.49007       45.52770      110.10762
H        -37.32102       45.01374      108.83232
H        -39.13392       45.11585      107.11048
H        -40.32696       45.57253      108.38706
N        -36.85639       48.72478      110.26202
C        -35.71553       49.24697      110.98163
H        -34.91004       49.51937      110.26672
H        -36.00960       50.15895      111.54454
H        -35.33900       48.48941      111.70024
H        -37.74216       49.24001      110.35368
Ca       -34.38034       58.56582      100.82975
O        -36.00642       57.36241      103.65891
H        -35.71022       56.57086      104.17489
H        -36.78709       57.70808      104.16061
O        -36.87351       59.88683      101.94006
H        -37.68808       59.51807      101.51456
H        -37.19090       60.27651      102.79290
O        -36.90015       55.48137      101.12534
H        -37.59228       55.86649      100.53119
H        -36.98121       54.50361      100.99505

Ca 1.0



