%chk=apoCaM-CA-Ng.loop4.water4.frame995.chk
%nprocshared=20
%mem=10GB
%nosave
#b3lyp/svp scf=(tight,noincore,xqc) Test 
#IOP(5/87=12) Density=Current Pop=(MK,readradii) iop(6/33=2) iop(6/42=6)

apoCaM-CA-Ng.loop4.water4.frame995 

   -3  1 
C         61.94592      101.80014       75.58250
C         61.97645      103.29649       75.56793
O         63.01963      103.87314       75.29580
H         61.20304      101.44007       74.83972
H         62.94249      101.38337       75.32581
H         61.65418      101.44554       76.59317
N         60.83996      103.99408       75.84517
C         60.74535      105.44844       75.84581
C         61.08735      105.98027       74.47127
O         61.99067      106.79638       74.33694
C         61.62573      106.07388       76.95084
C         61.37102      105.43026       78.27920
O         60.26905      105.48693       78.80084
O         62.36603      104.73981       78.86682
H         59.97939      103.46527       76.05721
H         59.68898      105.72462       76.06691
H         61.44044      107.16876       77.01777
H         62.69362      105.92701       76.69715
N         60.37832      105.54871       73.39173
C         60.61168      106.04553       72.04705
C         59.37638      106.85019       71.66451
O         58.32835      106.23778       71.51237
C         60.88752      104.88239       71.04344
C         62.12439      104.05577       71.48861
C         61.09035      105.44716       69.61984
C         62.39425      102.82560       70.61580
H         59.60608      104.87950       73.53772
H         61.52532      106.65591       72.02483
H         60.00186      104.20899       71.03272
H         61.96091      103.68445       72.52212
H         63.03003      104.69956       71.49196
H         60.20585      106.03284       69.29486
H         61.98423      106.10676       69.58481
H         61.21243      104.63704       68.87429
H         61.50991      102.15383       70.61325
H         62.64648      103.10628       69.57350
H         63.26208      102.26592       71.02428
N         59.36565      108.20440       71.47729
C         60.48855      109.11909       71.66884
C         60.08746      110.27817       72.58209
O         58.91580      110.40458       72.91276
C         60.95541      109.51887       70.26391
C         62.12407      110.43811       70.21153
O         62.03461      111.45922       69.55921
O         63.28968      110.11809       70.80427
H         58.48223      108.62180       71.14240
H         61.32953      108.63756       72.18863
H         60.10499      109.97198       69.70821
H         61.25625      108.58896       69.73537
N         61.03876      111.10405       73.11314
C         60.74865      112.13289       74.10308
C         61.30042      113.50397       73.76186
O         61.17601      114.37362       74.61293
H         62.02933      110.93623       72.88819
H         61.23264      111.81955       75.05382
H         59.65884      112.22615       74.30058
N         61.91648      113.79425       72.57340
C         62.50328      115.11863       72.31175
C         62.94535      115.40740       70.86722
O         63.22141      116.56834       70.59560
C         63.70589      115.37755       73.25861
C         64.79953      114.34955       73.10138
O         65.92691      114.69487       72.78760
O         64.55089      113.04725       73.34284
H         61.93861      113.05801       71.86457
H         61.70519      115.86774       72.51452
H         63.38273      115.35850       74.31703
H         64.11543      116.39414       73.06611
N         63.04329      114.46329       69.88867
C         63.45227      114.77123       68.52397
C         64.93138      115.10019       68.39744
O         65.36427      115.44353       67.30761
H         62.83600      113.49322       70.09433
H         62.81448      115.59168       68.13313
H         63.27821      113.87716       67.88397
N         65.77840      114.92654       69.44989
C         67.22840      115.06227       69.42157
C         67.86760      114.11508       68.42051
O         68.81717      114.48023       67.74237
C         67.71140      116.52199       69.30570
C         67.13724      117.38316       70.44602
C         67.85456      118.69802       70.63325
N         67.48084      119.52297       71.63814
O         68.79207      119.01103       69.91324
H         65.39460      114.58262       70.33684
H         67.58747      114.70034       70.41111
H         67.45912      116.97168       68.31965
H         68.81880      116.49385       69.40683
H         67.24780      116.83343       71.40429
H         66.05434      117.56194       70.26436
H         66.69966      119.26970       72.26120
H         67.98123      120.40858       71.80421
N         67.37791      112.85182       68.30083
C         67.96461      111.81086       67.46629
C         68.08662      110.50463       68.25713
O         68.37548      109.48531       67.64017
C         67.12084      111.62184       66.16735
C         65.64783      111.27583       66.43522
C         67.21118      112.86785       65.27037
H         66.51803      112.61203       68.81656
H         68.98724      112.08828       67.12759
H         67.56986      110.78625       65.58495
H         65.12153      111.10389       65.47117
H         65.56628      110.35026       67.04115
H         65.13206      112.10514       66.96335
H         66.76621      113.75458       65.76536
H         68.27318      113.09070       65.02898
H         66.67667      112.69441       64.31194
N         67.88501      110.43909       69.61155
C         67.80502      109.17247       70.33619
C         67.76910      109.36843       71.84967
O         67.10101      110.27470       72.33111
C         66.50799      108.44182       69.90165
C         66.25363      107.16170       70.66325
N         65.13480      107.01942       71.41457
O         67.06351      106.24887       70.60390
H         67.74716      111.30911       70.14720
H         68.69127      108.54419       70.09258
H         66.54701      108.19886       68.82021
H         65.65295      109.13383       70.05798
H         64.43874      107.77626       71.48142
H         64.96358      106.15121       71.94200
N         68.35309      108.42806       72.65263
C         68.19491      108.34204       74.10724
C         68.93463      107.11125       74.61713
O         68.63098      106.01446       74.16405
C         66.69058      108.22300       74.46199
C         66.41019      107.89226       75.90797
C         66.84867      108.72590       76.95036
C         65.68099      106.73176       76.21776
C         66.56253      108.39698       78.28089
C         65.39178      106.41263       77.54330
C         65.83164      107.24212       78.58038
O         65.55461      106.93902       79.86368
H         68.88234      107.67398       72.18436
H         68.61458      109.25238       74.58882
H         66.25047      107.43023       73.82146
H         66.16615      109.16998       74.22726
H         67.41008      109.62611       76.73588
H         65.32817      106.07376       75.43271
H         66.90445      109.04169       79.08032
H         64.82387      105.52016       77.76335
H         65.04564      106.15121       80.10166
N         69.91400      107.21948       75.56152
C         70.67830      106.07703       76.04950
C         70.48976      105.93368       77.55398
O         71.18801      106.62297       78.28653
C         72.18070      106.28662       75.73511
C         72.46589      106.47187       74.23990
C         73.93150      106.71798       74.01307
O         74.58350      105.95695       73.31685
O         74.53178      107.78819       74.57079
H         70.14288      108.15172       75.94071
H         70.36640      105.14345       75.54409
H         72.75878      105.41249       76.11060
H         72.53938      107.19722       76.26674
H         71.90730      107.34979       73.85057
H         72.13858      105.56601       73.68560
N         69.56525      105.11936       78.14368
C         68.55153      104.30295       77.47825
C         69.13998      103.16706       76.66893
O         69.99244      102.44599       77.16848
C         67.59449      103.71870       78.54364
C         66.43702      102.91044       77.93195
C         65.46452      102.50141       78.99667
O         64.84003      103.44180       79.72839
O         65.22877      101.32166       79.20084
H         69.54602      105.13764       79.17692
H         67.93411      104.95931       76.82753
H         67.16825      104.57380       79.11286
H         68.15541      103.07396       79.25715
H         66.83172      102.00661       77.41923
H         65.89767      103.52531       77.18249
N         68.62997      102.89472       75.43354
C         69.03892      101.76773       74.62232
H         69.86090      101.18597       75.08802
H         68.16925      101.08972       74.48029
H         69.37265      102.13106       73.62915
H         67.86846      103.48396       75.06382
Ca        62.06989      103.46319       80.69818
O         59.20450      103.27088       81.08336
H         58.22728      103.15508       81.18154
H         59.34500      103.37738       80.10926
O         63.30062      105.43103       82.53840
H         64.24336      105.66608       82.35120
H         62.79006      106.25375       82.33187
O         61.33839      103.35792       83.51417
H         61.96499      102.86198       84.09826
H         60.44786      102.97714       83.71770
O         64.63661      102.25046       82.44839
H         64.47888      101.56418       83.14406
H         65.61691      102.39077       82.45344

Ca 1.0



