%chk=apoCaM-CA-Ng.loop2.water4.frame103.chk
%nprocshared=20
%mem=10GB
%nosave
#b3lyp/svp scf=(tight,noincore,xqc) Test 
#IOP(5/87=12) Density=Current Pop=(MK,readradii) iop(6/33=2) iop(6/42=6)

apoCaM-CA-Ng.loop2.water4.frame103 

   -2  1 
C         46.59201       30.13711       92.05794
C         47.11661       28.77372       91.72030
O         47.78290       28.62455       90.70501
H         45.48456       30.10926       92.12121
H         47.00677       30.45970       93.03629
H         46.89030       30.87784       91.28477
N         46.86408       27.72029       92.54912
C         47.40031       26.38403       92.30253
C         46.85030       25.74508       91.03861
O         47.41779       24.74555       90.62054
C         47.12245       25.44043       93.48899
C         47.72459       25.95210       94.76628
O         46.93416       26.22552       95.82154
O         48.93118       26.11377       94.85701
H         46.31483       27.89474       93.40505
H         48.50305       26.48661       92.18204
H         47.55470       24.43672       93.28280
H         46.02280       25.32643       93.61469
N         45.76299       26.24399       90.37489
C         45.27254       25.69524       89.11703
C         46.34587       25.88536       88.06740
O         46.69353       27.03808       87.85642
C         44.75383       24.25923       89.28672
H         45.26811       27.06685       90.74772
H         44.39529       26.29628       88.78544
H         44.33250       23.89767       88.32408
H         45.54266       23.55394       89.61314
H         43.94108       24.24847       90.04358
N         46.95087       24.85398       87.40009
C         47.98515       25.09536       86.40170
C         49.32524       24.54975       86.89354
O         49.97260       23.79167       86.18133
C         47.58903       24.46543       85.04793
C         46.17847       24.71934       84.56276
O         45.65620       25.94700       84.36018
O         45.48168       23.75457       84.28947
H         46.69910       23.87706       87.60656
H         48.12068       26.18519       86.24072
H         47.69154       23.35903       85.13713
H         48.30951       24.80851       84.27465
N         49.80100       24.88173       88.13022
C         51.06707       24.37089       88.63854
C         52.27827       25.00245       87.97715
O         53.37971       24.53629       88.23243
H         49.22739       25.46945       88.75209
H         51.08695       23.26654       88.50056
H         51.14700       24.57119       89.72842
N         52.16627       26.07596       87.14058
C         53.30655       26.69709       86.46398
C         54.31743       27.28344       87.43605
O         54.09694       27.26293       88.63949
C         52.80166       27.79464       85.50110
C         51.95813       27.18143       84.41335
N         50.65779       27.51272       84.27553
O         52.45707       26.36729       83.65115
H         51.22996       26.46573       86.96079
H         53.83378       25.91749       85.87158
H         53.64187       28.32327       85.00693
H         52.22513       28.54951       86.08278
H         50.22613       28.19807       84.90423
H         50.08411       27.07578       83.54118
N         55.47490       27.82453       86.95387
C         56.51957       28.36727       87.80107
C         56.65478       29.84857       87.57272
O         56.97345       30.25355       86.46364
H         55.63377       27.84779       85.93534
H         57.48171       27.86294       87.56399
H         56.30579       28.17433       88.87205
N         56.40288       30.71992       88.59214
C         56.53237       32.16913       88.46645
C         55.16959       32.86521       88.48440
O         55.13740       34.08034       88.34946
C         57.48503       32.70982       89.57249
C         56.89166       32.67856       90.99476
O         58.71487       32.02600       89.53602
H         56.09269       30.33700       89.49743
H         56.99389       32.41562       87.48562
H         57.69568       33.77958       89.35750
H         58.59505       31.15028       89.99166
H         56.00550       33.33469       91.04687
H         56.60336       31.65388       91.30692
H         57.63224       33.07262       91.72214
N         54.00893       32.16625       88.65494
C         52.66794       32.75448       88.69365
C         51.75292       32.08160       87.67738
O         52.20818       31.18336       86.97892
C         52.09943       32.65934       90.14821
C         52.29549       31.28721       90.85764
C         52.75263       33.74850       91.01145
C         51.63175       30.09520       90.17198
H         54.06166       31.14759       88.79085
H         52.68910       33.82737       88.39968
H         51.01740       32.90491       90.13681
H         51.86283       31.35927       91.87905
H         53.37941       31.06856       90.97937
H         53.84047       33.58527       91.09192
H         52.57807       34.75210       90.56662
H         52.31931       33.75033       92.03343
H         52.07343       29.89651       89.17740
H         51.79686       29.18513       90.78698
H         50.54159       30.26636       90.07601
N         50.43788       32.45658       87.54758
C         49.51310       31.76973       86.64866
C         48.92222       32.73643       85.62444
O         47.71226       32.83738       85.48258
C         48.43968       31.04689       87.49120
C         47.83127       29.91970       86.71668
O         48.54364       28.99657       86.36625
O         46.52402       29.85948       86.43355
H         50.06617       33.22060       88.13220
H         50.07804       31.00077       86.07921
H         47.68505       31.76959       87.87368
H         48.91939       30.56923       88.37164
N         49.76911       33.50261       84.88924
C         49.39267       34.46587       83.84762
C         48.23235       35.39110       84.23670
O         48.28114       35.98759       85.29890
C         50.65338       35.25274       83.38793
C         51.54215       35.72774       84.53131
C         51.16808       36.75792       85.41351
C         52.77803       35.08057       84.73619
C         51.99797       37.10649       86.48698
C         53.60045       35.43151       85.80558
C         53.20915       36.43934       86.68623
H         50.76911       33.38087       85.09899
H         49.05421       33.87974       82.97334
H         50.39419       36.07997       82.69247
H         51.24366       34.52196       82.79278
H         50.24375       37.29647       85.28379
H         53.09840       34.28057       84.08015
H         51.70057       37.89214       87.16941
H         54.53724       34.91128       85.95165
H         53.84598       36.70327       87.52071
N         47.14506       35.57053       83.40734
C         45.97901       36.39692       83.70901
C         45.26885       35.98326       84.97793
O         44.95473       36.83962       85.79280
C         45.03669       36.16038       82.51602
C         46.01236       35.93508       81.39327
C         47.04011       35.02918       82.06366
H         46.28956       37.46604       83.74359
H         44.48580       35.19903       82.63375
H         44.29016       36.96775       82.35224
H         45.57558       35.52780       80.45665
H         46.49535       36.91418       81.16880
H         46.69284       33.97390       82.12986
H         47.97935       35.11209       81.47638
N         44.97983       34.66657       85.20110
C         44.23679       34.18741       86.36456
C         44.92852       34.50517       87.68928
O         44.31282       34.29265       88.72504
C         43.99067       32.66117       86.27133
C         43.15669       32.25873       85.04005
C         42.91414       30.77658       85.01250
O         41.65681       30.29695       85.05556
O         43.85174       29.99977       84.93523
H         45.29026       33.98416       84.49455
H         43.25041       34.70304       86.36957
H         43.43648       32.32837       87.17659
H         44.97132       32.13655       86.25129
H         43.66823       32.53756       84.09609
H         42.17968       32.78646       85.07473
N         46.18783       35.02156       87.74997
C         46.81789       35.39593       88.99474
H         47.83202       35.80429       88.79271
H         46.21708       36.18564       89.49486
H         46.91047       34.51234       89.65844
H         46.72951       35.16483       86.89496
Ca        46.02880       27.95260       85.32258
O         47.96602       28.50643       82.81078
H         48.11877       27.72900       82.21716
H         48.71245       29.12527       82.60897
O         42.90896       26.83275       84.80892
H         42.92902       27.26422       83.91797
H         43.04955       25.87067       84.62093
O         45.00225       27.74885       82.01659
H         45.42909       28.02558       81.16743
H         44.81578       26.78374       81.89659
O         46.31683       30.92118       83.23310
H         46.06407       31.47640       84.01141
H         47.21677       31.24682       82.97984

Ca 1.0



