%chk=apoCaM-CA-Ng.loop1.water4.frame255.chk
%nprocshared=20
%mem=10GB
%nosave
#b3lyp/svp scf=(tight,noincore,xqc) Test 
#IOP(5/87=12) Density=Current Pop=(MK,readradii) iop(6/33=2) iop(6/42=6)

apoCaM-CA-Ng.loop1.water4.frame255 

   0  1 
C         47.48991       21.42340        0.93506
C         46.16285       20.75143        0.74058
O         45.38868       20.65748        1.68155
H         48.30940       20.71937        0.68011
H         47.55351       22.30837        0.26591
H         47.61546       21.76196        1.98491
N         45.82763       20.27557       -0.48844
C         44.53457       19.67188       -0.79681
C         44.33413       18.29404       -0.16375
O         43.29366       17.71823       -0.42461
C         44.36016       19.52221       -2.33049
C         44.35962       20.83535       -3.07020
O         45.45312       21.61985       -3.08830
O         43.36666       21.18260       -3.69024
H         46.51259       20.40349       -1.24841
H         43.72387       20.34782       -0.44210
H         43.37645       19.05097       -2.52583
H         45.14995       18.85846       -2.74544
N         45.26047       17.67045        0.62226
C         45.10345       16.28910        1.09000
C         45.11313       16.19768        2.60111
O         45.79716       17.00762        3.21195
C         46.26031       15.45910        0.49646
C         46.09932       15.36599       -1.02740
C         47.09047       14.38451       -1.65013
C         46.84820       14.28559       -3.16185
N         47.73366       13.29745       -3.77267
H         46.14389       18.14722        0.84940
H         44.14617       15.85802        0.74727
H         46.26041       14.43986        0.92044
H         47.24601       15.90067        0.76313
H         46.22267       16.37381       -1.48077
H         45.07374       14.99995       -1.25638
H         46.93739       13.38157       -1.19292
H         48.13276       14.71554       -1.45100
H         47.01881       15.28033       -3.63089
H         45.79200       13.98700       -3.34986
H         47.55391       12.35379       -3.35832
H         47.53975       13.25694       -4.79927
H         48.73253       13.56713       -3.62274
N         44.46403       15.22365        3.32436
C         43.60090       14.11378        2.87890
C         44.26346       13.16155        1.90054
O         44.14273       13.37198        0.70274
C         42.17687       14.51640        2.43445
C         41.49394       15.26432        3.53410
O         41.69001       14.88984        4.81117
O         40.93898       16.32142        3.29941
H         44.61609       15.25797        4.34609
H         43.39773       13.51944        3.79073
H         41.60295       13.58700        2.24690
H         42.16466       15.11241        1.49882
N         44.94270       12.04758        2.30087
C         45.04061       11.62539        3.69237
C         45.82461       10.33829        3.87844
O         46.43390        9.86143        2.93174
H         45.36598       11.46701        1.56180
H         44.00551       11.42613        4.04281
H         45.50353       12.42486        4.31214
N         45.81952        9.65278        5.05999
C         45.04716       10.04753        6.23740
C         43.74131        9.27962        6.28027
O         43.56454        8.34306        5.51140
C         45.85703        9.87776        7.54688
C         46.26861        8.45365        7.84282
O         47.06177        7.86841        7.12321
O         45.79181        7.83027        8.93704
H         46.28551        8.73527        5.06017
H         44.77199       11.11925        6.16372
H         45.22982       10.23595        8.39198
H         46.76717       10.51348        7.51493
N         42.74668        9.66128        7.13332
C         41.46869        8.97270        7.20101
C         40.65919        9.03238        5.91678
O         39.64911        8.34725        5.85918
H         42.90278       10.45961        7.76748
H         40.84842        9.40464        8.01626
H         41.66762        7.90803        7.44870
N         41.01464        9.81957        4.85638
C         40.28543        9.83061        3.59001
C         41.22499        9.43241        2.45510
O         42.43103        9.38618        2.65172
C         39.66873       11.23714        3.36907
C         38.62644       11.56557        4.44249
O         39.04398       11.31560        2.11609
H         41.82823       10.44577        4.93418
H         39.46722        9.07858        3.60477
H         40.49784       11.97889        3.42626
H         39.06794       12.27013        1.83927
H         37.78762       10.83796        4.39006
H         39.07165       11.53548        5.45795
H         38.21840       12.58462        4.27076
N         40.71437        9.09966        1.23378
C         41.53562        8.75170        0.07456
C         41.35620        9.75052       -1.05999
O         42.04234        9.60061       -2.06403
C         41.26628        7.28484       -0.39767
C         39.77893        6.90200       -0.63870
C         41.86067        6.29380        0.61504
C         39.04202        7.75419       -1.66574
H         39.69112        9.09641        1.11817
H         42.61659        8.82350        0.32883
H         41.82570        7.12421       -1.34720
H         39.21073        6.93353        0.31562
H         39.75336        5.85346       -1.00960
H         41.74627        5.25151        0.24520
H         42.94727        6.48305        0.74852
H         41.35587        6.38112        1.60008
H         38.02360        7.34169       -1.82513
H         38.91266        8.78413       -1.28978
H         39.58273        7.75914       -2.63548
N         40.47971       10.79465       -0.98297
C         40.30566       11.77650       -2.04215
C         40.64287       13.16653       -1.54517
O         40.83638       13.37431       -0.35410
C         38.87371       11.71382       -2.63698
C         37.77030       11.92012       -1.59027
O         38.66985       10.47264       -3.25847
H         39.91011       10.91877       -0.14051
H         41.01933       11.56898       -2.86972
H         38.75320       12.52034       -3.39703
H         39.16358       10.49698       -4.11986
H         36.77738       11.89924       -2.08696
H         37.77809       11.10853       -0.83262
H         37.88772       12.89731       -1.07738
N         40.80175       14.16219       -2.45343
C         41.26806       15.49519       -2.10792
C         40.12826       16.37183       -1.60290
O         39.10339       16.44203       -2.26413
C         42.02021       16.13713       -3.30453
C         41.15704       16.45630       -4.53301
O         43.07130       15.28200       -3.68163
H         40.71934       13.90759       -3.44871
H         42.05965       15.40657       -1.32801
H         42.44267       17.09324       -2.93447
H         43.75979       15.83962       -4.12971
H         40.36650       17.18920       -4.28011
H         41.79529       16.91644       -5.31698
H         40.69181       15.54575       -4.95925
N         40.27865       17.10737       -0.45893
C         39.30194       18.08441        0.05677
C         39.72804       18.82970        1.35047
O         38.89465       19.55496        1.87583
C         38.95051       19.14850       -1.02402
C         40.13487       20.06279       -1.40223
C         39.80750       20.98488       -2.59163
C         39.78415       20.22269       -3.93155
N         39.45681       21.11421       -5.04317
H         41.14674       16.93706        0.03775
H         38.37495       17.51566        0.28946
H         38.11527       19.78862       -0.66363
H         38.55888       18.64502       -1.91940
H         41.04247       19.47149       -1.64786
H         40.36633       20.69569       -0.51829
H         40.60329       21.75761       -2.66507
H         38.84026       21.50335       -2.40992
H         39.04194       19.39937       -3.91510
H         40.78972       19.77677       -4.10511
H         40.13553       21.90824       -5.08881
H         39.50662       20.57450       -5.93787
H         38.48497       21.48300       -4.92698
N         40.97709       18.74500        1.90938
C         41.40698       19.47358        3.10367
C         41.40006       20.96661        2.85199
O         42.03399       21.41938        1.90848
C         42.82370       18.99009        3.51284
C         43.49515       19.73693        4.67649
C         42.66445       19.89980        5.92641
O         42.46768       21.02658        6.35126
O         42.13585       18.86393        6.60973
H         41.69039       18.15002        1.48946
H         40.72964       19.22728        3.95013
H         43.51029       19.06881        2.64183
H         42.76080       17.91770        3.77780
H         43.77662       20.75199        4.31817
H         44.43720       19.20285        4.92546
N         40.72575       21.79331        3.70061
C         40.69721       23.23490        3.56641
H         39.64341       23.57652        3.50266
H         41.16798       23.69358        4.46203
H         41.23976       23.58829        2.66509
H         40.22712       21.38832        4.50733
Ca        42.00032       16.68817        6.09221
O         40.61576       18.74170        9.06347
H         41.05289       19.57077        8.74661
H         40.66091       18.80902       10.04934
O         39.70402       14.17366        7.50979
H         40.48818       13.64100        7.79621
H         38.92979       13.71926        7.92774
O         40.71785       15.75046       10.00339
H         40.58472       16.40729       10.73189
H         40.95923       14.91113       10.46947
O         38.97797       17.67246        6.09942
H         39.63538       17.37983        5.42209
H         38.27800       18.12729        5.56863

Ca 1.0



