%chk=apoCaM-CA-Ng.loop3.water3.frame868.chk
%nprocshared=20
%mem=10GB
%nosave
#b3lyp/svp scf=(tight,noincore,xqc) Test 
#IOP(5/87=12) Density=Current Pop=(MK,readradii) iop(6/33=2) iop(6/42=6)

apoCaM-CA-Ng.loop3.water3.frame868 

   0  1 
C         73.81683       52.97083      107.34463
C         74.62268       54.19463      107.65794
O         75.55584       54.50179      106.93112
H         72.76403       53.27220      107.15394
H         74.20682       52.46130      106.43819
H         73.84519       52.26727      108.20157
N         74.28399       54.97013      108.72336
C         74.93720       56.24531      109.01700
C         76.40650       56.02583      109.40826
O         76.76022       54.90047      109.73262
C         74.13592       56.95562      110.14297
C         74.17462       58.45954      110.13397
O         73.01842       59.14572      110.10507
O         75.21829       59.07529      110.18494
H         73.47870       54.66661      109.29350
H         74.86313       56.84180      108.08949
H         74.43991       56.53833      111.12582
H         73.05545       56.72497      110.01720
N         77.31461       57.04887      109.40447
C         78.71081       56.89874      109.83796
C         78.98767       57.72901      111.09974
O         79.93180       57.41201      111.81085
C         79.64709       57.21581      108.64762
C         81.14631       56.95649      108.89256
C         81.94386       57.18468      107.59276
C         83.44844       56.93246      107.77657
N         84.16878       57.12422      106.51519
H         77.00803       57.96597      109.06148
H         78.88701       55.84004      110.12834
H         79.50669       58.27175      108.33633
H         79.32893       56.56293      107.80419
H         81.29079       55.90386      109.22064
H         81.52439       57.63683      109.68524
H         81.79447       58.23027      107.24466
H         81.56293       56.49308      106.80889
H         83.61311       55.89125      108.13238
H         83.85264       57.63361      108.53973
H         83.82479       56.44633      105.79626
H         84.03710       58.10140      106.16599
H         85.18947       56.95720      106.67044
N         78.17546       58.76398      111.46906
C         78.23638       59.49074      112.73278
C         76.89320       59.41940      113.48740
O         76.77977       60.03663      114.53573
C         78.70569       60.94282      112.47832
C         77.90515       61.71420      111.46177
O         78.45092       62.14134      110.45719
O         76.60534       61.97928      111.66211
H         77.44867       59.07427      110.82466
H         78.99686       59.04212      113.40951
H         79.75590       60.89200      112.11509
H         78.71365       61.50421      113.43720
N         75.85783       58.63542      113.05135
C         74.59646       58.44124      113.75971
C         73.63878       59.62435      113.81281
O         72.57265       59.44035      114.38090
H         75.99479       58.04786      112.22219
H         74.81307       58.09944      114.79466
H         74.03918       57.62317      113.25335
N         73.92430       60.85317      113.28928
C         73.02594       62.00728      113.42272
C         72.76362       62.69804      112.09377
O         73.41936       62.39850      111.11731
C         73.67546       63.01103      114.38995
C         73.79663       62.40853      115.76624
N         75.00828       62.15326      116.31074
O         72.78302       62.13546      116.39188
H         74.83395       60.99948      112.84743
H         72.03950       61.69249      113.82830
H         73.07706       63.94367      114.47074
H         74.67853       63.28433      113.99044
H         75.87553       62.35775      115.79400
H         75.07805       61.72971      117.24784
N         71.79750       63.65837      112.00370
C         71.51311       64.45028      110.81072
C         71.18328       63.61361      109.59488
O         70.34383       62.72927      109.69589
H         71.22645       63.85351      112.83995
H         72.36965       65.12130      110.59040
H         70.63273       65.09342      111.03169
N         71.76846       63.88381      108.38497
C         71.46241       63.12284      107.17643
C         72.25867       61.79875      107.14521
O         72.27877       61.14962      108.37189
C         71.82758       63.90666      105.89093
C         71.04015       65.17655      105.67296
C         69.63668       65.14488      105.58796
C         71.70762       66.40027      105.49349
C         68.91655       66.31568      105.33148
C         70.98545       67.56843      105.22955
C         69.58991       67.53142      105.14652
O         68.90942       68.66501      104.88150
H         72.39044       64.70236      108.30937
H         70.37162       62.90683      107.15729
H         71.61858       63.26732      105.00617
H         72.91940       64.11955      105.89394
H         69.09684       64.21476      105.70868
H         72.78844       66.44969      105.53745
H         67.83644       66.27444      105.26617
H         71.51273       68.50220      105.07932
H         67.94468       68.68042      104.80425
N         71.80855       60.93020      106.04449
C         72.29457       59.53830      105.94174
C         73.80871       59.47048      106.09866
O         74.29663       59.52230      107.21418
C         71.55147       58.53457      106.88717
C         71.95480       57.05850      106.62266
C         70.01946       58.68780      106.83577
C         71.61145       56.52652      105.22778
H         70.78481       61.00609      105.85262
H         72.04360       59.25508      104.89948
H         71.83989       58.75221      107.93284
H         71.44853       56.41324      107.37407
H         73.04455       56.94032      106.76942
H         69.70933       59.68677      107.20615
H         69.63201       58.55349      105.80537
H         69.53709       57.94770      107.50860
H         72.15986       57.08060      104.43979
H         71.91484       55.46088      105.16109
H         70.52161       56.58398      105.03217
N         74.61535       59.40406      105.00491
C         76.08131       59.43608      105.09844
C         76.81950       59.65614      103.77646
O         78.02530       59.85964      103.83936
C         76.62351       58.15670      105.75918
O         76.28691       57.04372      104.97790
H         74.12951       59.41644      104.10762
H         76.34768       60.31294      105.72449
H         76.20047       58.04363      106.77219
H         77.73062       58.22709      105.86247
H         76.69234       56.25940      105.42829
N         76.21297       59.63205      102.55451
C         76.93540       59.86374      101.31520
C         77.47382       61.28459      101.24560
O         76.84673       62.17300      101.80635
C         75.98464       59.65759      100.13415
H         75.21802       59.41722      102.46177
H         77.74946       59.11519      101.24401
H         76.50515       59.86395       99.19042
H         75.60909       58.61213      100.12463
H         75.12031       60.35285      100.20103
N         78.56839       61.62487      100.50291
C         79.44053       60.67341       99.81980
C         80.20435       61.36678       98.70169
O         80.85788       62.36232       98.98313
C         80.44689       60.08893      100.81912
H         78.80856       62.62805      100.45260
H         78.84997       59.84015       99.40572
H         79.93383       59.56627      101.65051
H         81.10660       59.35694      100.30511
H         81.07738       60.89337      101.25551
N         80.23738       60.91415       97.41261
C         79.59176       59.70135       96.91497
C         78.08066       59.82080       96.91241
O         77.42318       58.85032       97.26126
C         80.11927       59.36237       95.50571
C         79.61051       58.00006       95.00318
C         80.29371       57.61356       93.72406
O         79.64341       57.42500       92.70902
O         81.63091       57.44880       93.69887
H         80.82400       61.44757       96.75049
H         79.90175       58.84467       97.55596
H         81.22838       59.30782       95.57937
H         79.85368       60.16261       94.78024
H         78.50993       58.04157       94.85050
H         79.83189       57.21248       95.75608
N         77.46477       60.97785       96.53595
C         76.02506       61.15727       96.54588
H         75.48223       60.24020       96.85847
H         75.76120       61.97178       97.25404
H         75.67935       61.43946       95.53024
H         78.03899       61.78556       96.25287
Ca        74.47652       61.55870      108.89956
O         75.37549       64.36662      109.56297
H         75.24365       64.66410      110.49786
H         74.66055       64.82373      109.05390
O         75.81239       62.69874      106.59750
H         75.30864       63.23962      105.93995
H         76.49235       63.31586      106.96685
O         77.76483       60.50802      107.89544
H         78.64004       60.39415      107.44765
H         77.92040       60.19966      108.82096

Ca 1.0



