%chk=apoCaM-CA-Ng.loop4.water3.frame319.chk
%nprocshared=20
%mem=10GB
%nosave
#b3lyp/svp scf=(tight,noincore,xqc) Test 
#IOP(5/87=12) Density=Current Pop=(MK,readradii) iop(6/33=2) iop(6/42=6)

apoCaM-CA-Ng.loop4.water3.frame319 

   -3  1 
C         64.13111       82.01225       34.90990
C         64.81854       80.68591       35.00885
O         65.78545       80.57539       35.74314
H         63.07722       81.90522       35.24248
H         64.63372       82.76562       35.55374
H         64.15150       82.36417       33.85784
N         64.34254       79.62304       34.30168
C         64.88632       78.27046       34.33742
C         64.81565       77.68648       35.73914
O         65.72008       77.89352       36.53084
C         66.23359       78.11642       33.57942
C         67.38686       78.96665       34.04026
O         67.93524       78.78770       35.25281
O         67.86641       79.79981       33.28724
H         63.50332       79.77128       33.72024
H         64.19719       77.64417       33.72693
H         66.03310       78.37911       32.51713
H         66.55125       77.05288       33.59967
N         63.68369       77.01369       36.11775
C         63.41220       76.37380       37.40730
C         64.10973       75.02011       37.47501
O         63.41809       74.01401       37.55956
C         63.64920       77.30039       38.64084
C         63.14870       76.66601       39.97229
C         63.00475       78.68559       38.43780
C         61.63495       76.40922       40.05344
H         62.91410       76.96478       35.43267
H         62.32482       76.14644       37.39653
H         64.73819       77.46604       38.75915
H         63.41736       77.34756       40.80949
H         63.67479       75.70430       40.14839
H         63.45397       79.20852       37.56940
H         61.91385       78.60441       38.25624
H         63.17772       79.32251       39.33045
H         61.38480       75.98855       41.04974
H         61.05662       77.34859       39.93637
H         61.30191       75.67650       39.29160
N         65.46146       74.90244       37.36080
C         66.13850       73.61828       37.24859
C         66.02714       72.79540       38.52147
O         65.59069       71.65850       38.40468
C         67.59578       73.79089       36.76155
C         67.67305       74.38201       35.36787
O         66.66397       74.67796       34.74466
O         68.87492       74.56302       34.78994
H         66.03407       75.74682       37.27425
H         65.65045       73.02820       36.43700
H         68.07979       72.79135       36.71381
H         68.17528       74.42921       37.45402
N         66.35336       73.22856       39.77458
C         66.84873       74.55779       40.12708
C         67.00597       74.71684       41.64022
O         66.55771       73.83702       42.36247
H         66.21758       72.53322       40.52314
H         66.12721       75.32558       39.78854
H         67.81343       74.69313       39.62505
N         67.60075       75.77823       42.26521
C         68.28095       76.94515       41.71323
C         67.35031       77.84657       40.91219
O         67.11094       77.55535       39.75111
C         69.58085       76.57448       40.95764
C         70.46037       77.75603       40.63312
O         70.11481       79.00887       40.98979
O         71.51520       77.57254       40.04675
H         67.59886       75.74193       43.29840
H         68.63723       77.50277       42.60014
H         69.35750       76.06009       40.00911
H         70.17554       75.88511       41.59519
N         66.81516       78.99832       41.42053
C         66.93950       79.43810       42.79993
C         66.10323       78.57752       43.72020
O         65.32561       77.75848       43.24652
H         66.25538       79.58901       40.79774
H         66.54934       80.47400       42.90148
H         68.00694       79.47731       43.09729
N         66.20786       78.72097       45.07036
C         65.38170       77.95141       45.99884
C         63.91977       78.40462       46.00415
O         63.10190       77.68581       46.56027
C         65.94154       77.97237       47.44275
C         66.07001       79.38461       48.04447
C         66.40088       79.34381       49.50905
N         65.50510       78.85055       50.39539
O         67.46709       79.78936       49.90575
H         66.92945       79.36281       45.42490
H         65.41182       76.88747       45.66934
H         66.94316       77.48938       47.46023
H         65.26409       77.35321       48.07071
H         65.11916       79.93081       47.95031
H         66.86026       79.94873       47.50721
H         64.58913       78.50080       50.07691
H         65.71457       78.84216       51.40383
N         63.52378       79.59226       45.45493
C         62.13548       80.06466       45.45877
C         61.95654       81.33550       46.28678
O         60.84225       81.84455       46.31391
C         61.62699       80.28661       44.00436
C         61.59474       78.96679       43.22341
C         62.44219       81.34109       43.23590
H         64.23467       80.20715       45.03701
H         61.46362       79.31057       45.92521
H         60.57603       80.65024       44.06099
H         62.61390       78.54181       43.11511
H         60.95132       78.22970       43.75033
H         61.16710       79.13219       42.21133
H         62.44527       82.30984       43.77861
H         63.48980       81.01077       43.08366
H         61.98918       81.51213       42.23677
N         62.97216       81.89146       47.00985
C         62.82328       83.11008       47.80135
C         63.81950       84.19616       47.38927
O         63.70510       85.30307       47.89289
C         63.02806       82.77869       49.29613
C         62.11393       81.67594       49.77564
N         60.76876       81.81786       49.74065
O         62.59930       80.63978       50.20507
H         63.87969       81.41704       47.03543
H         61.80329       83.53037       47.66463
H         62.85355       83.68475       49.91605
H         64.08282       82.45564       49.44915
H         60.33663       82.68322       49.38781
H         60.15601       81.05649       50.06953
N         64.86519       83.93474       46.54637
C         65.92820       84.88821       46.24385
C         66.29146       84.83312       44.77207
O         66.34885       83.73815       44.23626
C         67.19116       84.45975       47.01640
C         67.01563       84.52369       48.50941
C         66.86528       85.76233       49.15443
C         67.02745       83.34620       49.27252
C         66.73875       85.82040       50.54495
C         66.89022       83.40519       50.66107
C         66.75165       84.64019       51.30321
O         66.63770       84.68087       52.64565
H         65.00179       82.98290       46.18873
H         65.66816       85.92538       46.54906
H         68.04747       85.11816       46.75813
H         67.45628       83.42347       46.70682
H         66.86369       86.68270       48.58307
H         67.14011       82.38277       48.79220
H         66.63679       86.78241       51.03132
H         66.89895       82.48938       51.23793
H         66.55597       85.51504       53.12939
N         66.76894       85.95060       44.14081
C         67.42005       85.97735       42.82582
C         66.46390       85.91504       41.63936
O         66.55994       86.79272       40.79124
C         68.56243       84.92822       42.69475
C         69.63992       85.02816       43.79789
C         70.46540       86.29150       43.78165
O         70.31460       87.14536       42.92244
O         71.41290       86.46705       44.72207
H         66.79874       86.82639       44.68406
H         67.90747       86.97080       42.73441
H         69.06041       85.03539       41.70656
H         68.14180       83.90319       42.71583
H         70.34513       84.17762       43.68138
H         69.15948       84.92592       44.78849
N         65.55636       84.91189       41.46396
C         64.75927       84.78078       40.24438
C         63.79608       85.94106       40.01134
O         63.21757       85.98882       38.93390
C         63.93599       83.46901       40.23996
C         64.72452       82.17341       40.49420
C         65.81821       81.89660       39.50661
O         66.80467       82.61328       39.45153
O         65.76729       80.77294       38.76867
H         65.46956       84.19329       42.18216
H         65.47012       84.75420       39.39020
H         63.41735       83.37034       39.26060
H         63.15857       83.53777       41.03302
H         63.99907       81.33365       40.46457
H         65.16973       82.16697       41.50893
N         63.54540       86.89036       40.96025
C         62.62191       87.99002       40.75682
H         61.80614       87.92756       41.50696
H         63.15967       88.95187       40.88758
H         62.16369       87.98323       39.74512
H         64.00254       86.83823       41.88063
Ca        67.65683       79.95758       37.85645
O         69.15326       77.12388       37.42200
H         68.86996       76.75142       36.55064
H         70.03606       76.70943       37.58955
O         70.75244       80.01182       37.57545
H         70.32704       79.75374       38.43052
H         71.08902       80.92852       37.73698
O         68.56202       82.26036       36.29321
H         67.77247       82.52735       36.82785
H         69.19085       83.01876       36.38530

Ca 1.0



