%chk=apoCaM-CA-Ng.loop2.water3.frame159.chk
%nprocshared=20
%mem=10GB
%nosave
#b3lyp/svp scf=(tight,noincore,xqc) Test 
#IOP(5/87=12) Density=Current Pop=(MK,readradii) iop(6/33=2) iop(6/42=6)

apoCaM-CA-Ng.loop2.water3.frame159 

   -2  1 
C         79.70376       65.80272       34.07773
C         81.16150       65.98910       33.76637
O         81.99169       65.64204       34.59449
H         79.06145       66.15164       33.24122
H         79.49618       64.72544       34.25002
H         79.43801       66.37576       34.99019
N         81.55165       66.51914       32.57210
C         82.95355       66.66892       32.18821
C         83.69949       67.72610       33.01670
O         84.89904       67.85249       32.82661
C         83.02961       67.00048       30.67897
C         84.42804       66.92777       30.13190
O         84.93808       67.90690       29.61198
O         85.11621       65.77117       30.19337
H         80.81938       66.76536       31.88731
H         83.44063       65.67866       32.33745
H         82.59054       68.00699       30.49821
H         82.42714       66.25531       30.11458
N         83.06494       68.52207       33.93379
C         83.69993       69.55054       34.76417
C         84.70827       68.96653       35.78568
O         84.08066       67.88615       36.41002
C         84.26656       70.69523       33.91720
H         82.04993       68.41804       34.06539
H         82.89746       70.00274       35.38956
H         84.67566       71.48668       34.58072
H         85.06616       70.35407       33.23029
H         83.45456       71.13590       33.30155
N         85.98252       68.52935       35.18304
C         86.91342       67.95084       36.18036
C         87.20365       66.49930       35.83318
O         88.34875       66.06916       35.88587
C         88.19960       68.80880       36.34337
C         89.05508       68.91377       35.09879
O         90.18330       69.64673       35.13551
O         88.74736       68.34574       34.06161
H         86.42322       69.33957       34.69527
H         86.42819       67.92587       37.18348
H         88.82345       68.38136       37.15783
H         87.90080       69.83522       36.64767
N         86.18064       65.67133       35.48497
C         86.34079       64.25401       35.24313
C         86.75467       63.57084       36.51483
O         87.74484       62.85297       36.51757
H         85.22846       66.04719       35.39825
H         87.06686       64.07109       34.42009
H         85.35797       63.83438       34.93788
N         86.04388       63.78473       37.65902
C         86.39904       63.16255       38.92895
C         86.15285       61.66073       38.87685
O         85.63613       61.16697       37.88323
C         85.63375       63.83708       40.09006
C         86.01446       65.29582       40.22168
N         87.28986       65.66294       40.49420
O         85.15960       66.15520       40.08933
H         85.25016       64.44502       37.62757
H         87.48513       63.31745       39.10436
H         85.87288       63.34542       41.05520
H         84.53864       63.74361       39.91443
H         88.02969       64.95881       40.62473
H         87.54138       66.65879       40.58133
N         86.54973       60.86490       39.91142
C         86.47152       59.41088       39.88207
C         85.59840       58.89879       40.99694
O         85.87049       59.19624       42.15085
H         86.97491       61.30348       40.74177
H         87.49467       59.00069       40.00531
H         86.08554       59.04762       38.90560
N         84.50326       58.13952       40.70929
C         83.53296       57.70963       41.71190
C         82.24298       58.50741       41.56102
O         81.32158       58.29429       42.33901
C         83.30829       56.17521       41.65300
C         82.65648       55.67062       40.35465
O         84.51508       55.49454       41.89341
H         84.29909       57.92724       39.72103
H         83.90849       57.94038       42.73252
H         82.61245       55.90694       42.47810
H         85.10485       55.63238       41.10637
H         83.29462       55.87489       39.47102
H         82.50298       54.57214       40.42274
H         81.66549       56.14718       40.20528
N         82.13555       59.49137       40.62114
C         81.00710       60.39573       40.48404
C         81.49060       61.81217       40.76831
O         82.67458       62.00551       41.02337
C         80.37553       60.25799       39.05669
C         81.38877       60.57977       37.91795
C         79.77548       58.84946       38.89546
C         80.76543       60.60235       36.52000
H         82.92207       59.67766       39.98621
H         80.21991       60.16748       41.23646
H         79.53461       60.98024       38.98249
H         82.21523       59.83839       37.90550
H         81.82518       61.58602       38.09273
H         79.22270       58.75121       37.94001
H         80.57000       58.07456       38.92958
H         79.04719       58.65097       39.71014
H         79.95090       61.35503       36.47148
H         81.54405       60.87509       35.77576
H         80.36967       59.60745       36.23276
N         80.63023       62.86175       40.70974
C         81.05404       64.25150       40.82966
C         80.25038       64.98544       41.91169
O         80.38471       66.19471       42.02487
C         80.89667       64.83784       39.41457
C         81.62986       66.10143       39.06934
O         81.56924       66.48252       37.91087
O         82.40732       66.79309       39.92593
H         79.64103       62.68130       40.47509
H         82.13485       64.31791       41.08617
H         79.82411       64.93427       39.16127
H         81.33678       64.09467       38.71135
N         79.42431       64.30726       42.77456
C         78.63160       64.95488       43.81981
C         77.51533       65.78954       43.19765
O         76.71766       65.21518       42.46928
C         77.96955       63.89342       44.74046
C         77.08165       64.55681       45.77359
C         77.63172       65.36508       46.78291
C         75.68500       64.40871       45.70048
C         76.79789       66.02985       47.68800
C         74.85535       65.07674       46.60527
C         75.41074       65.89029       47.59551
H         79.37393       63.28058       42.71673
H         79.31342       65.55956       44.45053
H         78.73681       63.26795       45.24691
H         77.35830       63.21512       44.10416
H         78.70416       65.49346       46.85895
H         75.23561       63.79769       44.92767
H         77.22655       66.66197       48.45482
H         73.78065       64.97204       46.53091
H         74.76582       66.41434       48.28896
N         77.33244       67.11922       43.47634
C         76.23997       67.92197       42.93735
C         76.18547       67.87096       41.42700
O         75.13521       67.60929       40.85888
C         76.57316       69.34625       43.40515
C         77.25515       69.08386       44.72491
C         78.15492       67.90271       44.37666
H         75.28278       67.57530       43.38905
H         77.35069       69.80122       42.75050
H         75.70041       70.03210       43.43709
H         77.78434       69.95149       45.17172
H         76.47509       68.73114       45.43948
H         79.07899       68.20885       43.83887
H         78.40830       67.39393       45.32367
N         77.33110       68.07210       40.72467
C         77.44459       68.01046       39.27326
C         76.95912       66.66477       38.76133
O         76.22544       66.63617       37.78294
C         78.91070       68.25678       38.86671
C         79.38304       69.67911       39.23282
C         80.84035       69.86749       38.93453
O         81.69396       70.17218       39.93158
O         81.25789       69.75750       37.79318
H         78.18929       68.22973       41.27367
H         76.82768       68.80785       38.80281
H         79.02872       68.11706       37.76933
H         79.53589       67.51448       39.39523
H         79.23616       69.87863       40.31387
H         78.79159       70.42853       38.66503
N         77.26123       65.51322       39.42124
C         76.73485       64.22822       39.01354
H         75.62347       64.26521       38.98450
H         77.12387       63.95722       38.01064
H         77.03558       63.44601       39.74327
H         77.84447       65.55316       40.26803
Ca        83.69974       68.14794       38.64623
O         84.37581       71.42371       39.00105
H         84.84091       72.02871       39.63209
H         83.63991       71.97138       38.62826
O         86.56035       69.29542       39.91665
H         86.93368       69.13175       40.81894
H         87.12329       70.01952       39.54407
O         84.01592       69.19096       42.08976
H         84.95511       69.34833       42.36027
H         83.51258       69.18319       42.94234

Ca 1.0



