%chk=apoCaM-CA-Ng.loop4.water4.frame770.chk
%nprocshared=20
%mem=10GB
%nosave
#b3lyp/svp scf=(tight,noincore,xqc) Test 
#IOP(5/87=12) Density=Current Pop=(MK,readradii) iop(6/33=2) iop(6/42=6)

apoCaM-CA-Ng.loop4.water4.frame770 

   -3  1 
C        104.78638       -8.31908       27.62373
C        106.15123       -8.32544       28.25019
O        106.44022       -9.21834       29.03148
H        104.00663       -8.23322       28.40385
H        104.66810       -7.47106       26.91628
H        104.63823       -9.26393       27.05892
N        107.05305       -7.35629       27.93203
C        108.43647       -7.31379       28.39550
C        109.21638       -8.49339       27.82592
O        109.91979       -9.19058       28.54407
C        108.53624       -7.16203       29.93439
C        107.86006       -5.91832       30.45855
O        107.31176       -5.12726       29.70629
O        107.87109       -5.66887       31.78162
H        106.76046       -6.60963       27.28274
H        108.90776       -6.41022       27.94647
H        109.60685       -7.10650       30.22602
H        108.09136       -8.04382       30.43880
N        109.12641       -8.74112       26.48861
C        109.89747       -9.75102       25.76376
C        111.37948       -9.35649       25.76444
O        111.66642       -8.22371       25.40627
C        109.35046       -9.94170       24.30582
C        109.29309       -8.63714       23.45922
C        107.97427      -10.63583       24.36975
C        108.99667       -8.89092       21.98234
H        108.46649       -8.15644       25.96234
H        109.75670      -10.73072       26.25719
H        110.03495      -10.64056       23.78731
H        110.27263       -8.12585       23.48376
H        108.52550       -7.93640       23.84563
H        107.22592      -10.00136       24.89012
H        107.59315      -10.89123       23.36265
H        108.06562      -11.59750       24.91706
H        109.77934       -9.54789       21.54730
H        108.00049       -9.35101       21.83351
H        109.00524       -7.92254       21.43946
N        112.39966      -10.17209       26.17590
C        112.26724      -11.56735       26.57783
C        113.48334      -11.96664       27.40125
O        114.59491      -11.89445       26.89348
C        112.16444      -12.47356       25.32319
C        111.73195      -13.87923       25.63144
O        111.69662      -14.71229       24.73954
O        111.30223      -14.20957       26.86198
H        113.34618       -9.75851       26.18776
H        111.37344      -11.67311       27.22311
H        113.14867      -12.48542       24.80198
H        111.42350      -12.08179       24.60883
N        113.34293      -12.38569       28.68976
C        114.46955      -12.74017       29.54133
C        114.45599      -14.19628       29.95638
O        115.32608      -14.58038       30.72447
H        112.39610      -12.45100       29.09550
H        114.42230      -12.10393       30.45188
H        115.44031      -12.54198       29.04173
N        113.49694      -15.05925       29.51490
C        113.38522      -16.44394       29.95090
C        113.35933      -17.43769       28.79430
O        113.88504      -18.52846       28.97076
C        112.16886      -16.61246       30.89644
C        110.84263      -16.09893       30.38525
O        110.68078      -14.79350       30.09629
O        109.87670      -16.84166       30.32615
H        112.77123      -14.70697       28.88455
H        114.25824      -16.72992       30.58058
H        112.38239      -16.04236       31.82536
H        112.08129      -17.68645       31.17691
N        112.74011      -17.17538       27.60473
C        112.56937      -18.18934       26.57438
C        111.52828      -19.22203       26.97785
O        111.36228      -20.20085       26.26518
H        112.33872      -16.25337       27.42547
H        113.55242      -18.66214       26.35925
H        112.20613      -17.71751       25.63502
N        110.75367      -19.03597       28.08859
C        109.72781      -19.94262       28.57716
C        108.54226      -20.07978       27.62874
O        107.72350      -20.96141       27.84662
C        110.34366      -21.26809       29.08036
C        111.37311      -20.97411       30.19526
C        111.84868      -22.21572       30.90096
N        112.52065      -23.18396       30.23936
O        111.63604      -22.34031       32.09840
H        110.87833      -18.18814       28.64246
H        109.27413      -19.48635       29.48600
H        110.81239      -21.84273       28.25381
H        109.52772      -21.88366       29.51828
H        110.89903      -20.31245       30.95498
H        112.24867      -20.43632       29.77565
H        112.72190      -23.09494       29.23374
H        112.84709      -24.02347       30.74125
N        108.30409      -19.14797       26.65394
C        107.08874      -19.11924       25.83674
C        106.27770      -17.84490       26.06813
O        105.22979      -17.71285       25.44852
C        107.43198      -19.23669       24.32518
C        108.23794      -18.03205       23.79938
C        108.17398      -20.54274       24.02689
H        108.98395      -18.38883       26.51315
H        106.42664      -19.97251       26.10321
H        106.47283      -19.26577       23.76001
H        108.40108      -18.13300       22.70620
H        107.68359      -17.08308       23.96326
H        109.22723      -17.95474       24.29467
H        108.34676      -20.63823       22.93389
H        109.15533      -20.56681       24.54508
H        107.56717      -21.41089       24.36077
N        106.70139      -16.85367       26.90625
C        106.01728      -15.57456       27.05486
C        105.51059      -15.42751       28.47486
O        105.86861      -16.23699       29.32322
C        107.03056      -14.47411       26.66663
C        106.51833      -13.06411       26.76123
N        107.13332      -12.16698       27.56661
O        105.56131      -12.71745       26.08525
H        107.56361      -16.97788       27.45595
H        105.13363      -15.52431       26.38097
H        107.35380      -14.64695       25.61697
H        107.92942      -14.58041       27.31404
H        107.95143      -12.43194       28.13557
H        106.79877      -11.19667       27.60915
N        104.61514      -14.44925       28.80173
C        104.09498      -14.32216       30.16240
C        102.72283      -13.65346       30.17453
O        102.31803      -13.11368       29.15211
C        105.17534      -13.59483       31.00974
C        105.17352      -13.93780       32.47807
C        104.31071      -13.31516       33.39224
C        106.08590      -14.90249       32.94640
C        104.34351      -13.67319       34.74577
C        106.11837      -15.25652       34.29325
C        105.24608      -14.64935       35.19809
O        105.28752      -15.01052       36.49582
H        104.26913      -13.83223       28.05273
H        103.92877      -15.35683       30.53763
H        105.20538      -12.49869       30.82212
H        106.15825      -13.95098       30.63220
H        103.61796      -12.55239       33.06216
H        106.77092      -15.39273       32.26432
H        103.66902      -13.19180       35.44184
H        106.82256      -16.00715       34.62989
H        104.69866      -14.62273       37.15769
N        101.92393      -13.68467       31.28227
C        100.61683      -13.03812       31.32620
C        100.65781      -11.91765       32.35168
O        100.74616      -12.21682       33.53491
C         99.49405      -14.03446       31.67660
C         99.34473      -15.14799       30.63425
C         98.21024      -16.06162       31.00410
O         98.24129      -16.74411       32.16520
O         97.25496      -16.19030       30.25508
H        102.24901      -14.17633       32.12568
H        100.37011      -12.63016       30.33259
H         98.53220      -13.47577       31.73082
H         99.69327      -14.48609       32.67398
H        100.27986      -15.74406       30.57379
H         99.14672      -14.69389       29.63810
N        100.65535      -10.59457       32.01048
C        100.69240      -10.09989       30.63457
C         99.38853      -10.34232       29.89589
O         98.40784      -10.76483       30.49397
C        101.06046       -8.60182       30.60654
C        102.50270       -8.38907       31.10340
C        102.94460       -6.95483       31.05599
O        104.20975       -6.65294       31.39772
O        102.18553       -6.06339       30.70772
H        100.72256       -9.91152       32.78170
H        101.49645      -10.64204       30.08961
H        100.33688       -8.02172       31.22197
H        101.01233       -8.22361       29.56253
H        103.18656       -8.97744       30.45573
H        102.61949       -8.75232       32.14521
N         99.33721      -10.13346       28.55093
C         98.15301      -10.39837       27.76605
H         97.31637       -9.75463       28.10758
H         98.35782      -10.18376       26.69493
H         97.86869      -11.46820       27.86121
H        100.18007       -9.80284       28.05683
Ca       104.91118       -4.51363       31.32930
O        105.77881       -3.27735       34.09468
H        106.20169       -3.50816       34.95952
H        105.51379       -2.32843       34.19141
O        104.89430       -6.20426       34.19424
H        104.63011       -7.10865       34.49789
H        105.88062       -6.19034       34.28025
O        106.52687       -1.95985       31.12140
H        107.27753       -2.10470       30.49245
H        106.96311       -1.80216       31.99592
O        103.03376       -2.53857       32.39352
H        102.38027       -2.72155       31.67236
H        102.48338       -2.25708       33.16630

Ca 1.0



