%chk=apoCaM-CA-Ng.loop3.water3.frame246.chk
%nprocshared=20
%mem=10GB
%nosave
#b3lyp/svp scf=(tight,noincore,xqc) Test 
#IOP(5/87=12) Density=Current Pop=(MK,readradii) iop(6/33=2) iop(6/42=6)

apoCaM-CA-Ng.loop3.water3.frame246 

   0  1 
C         16.07438       42.40106       84.09433
C         16.24124       43.87100       83.83885
O         15.64082       44.38100       82.90478
H         15.00915       42.17242       84.30128
H         16.40585       41.83067       83.20180
H         16.68418       42.06881       84.96150
N         17.07224       44.61169       84.62482
C         17.36233       46.02806       84.42959
C         17.98305       46.25227       83.06154
O         17.56925       47.14815       82.33717
C         16.11799       46.91580       84.67838
C         15.55391       46.78696       86.07008
O         14.57243       47.44237       86.38053
O         16.11686       45.97163       86.98383
H         17.57335       44.13841       85.39257
H         18.13758       46.31755       85.17448
H         15.32102       46.66345       83.94755
H         16.39726       47.98173       84.52840
N         18.98975       45.43363       82.64393
C         19.67937       45.58217       81.36836
C         19.31017       44.43937       80.43735
O         20.17893       43.78686       79.87547
C         21.20228       45.74974       81.61169
C         21.84443       44.57837       82.39646
C         23.34998       44.73950       82.64409
C         23.68562       45.94676       83.53561
N         25.11199       45.97690       83.85417
H         19.24942       44.64596       83.25269
H         19.32658       46.49985       80.84848
H         21.33579       46.68754       82.18934
H         21.71804       45.87114       80.63418
H         21.69626       43.63267       81.83622
H         21.36989       44.46327       83.39131
H         23.88971       44.81428       81.67585
H         23.69500       43.81868       83.16474
H         23.10650       45.88157       84.48413
H         23.41171       46.89144       83.01993
H         25.67642       46.03841       82.97612
H         25.31193       46.81380       84.44818
H         25.37747       45.11604       84.38613
N         17.99265       44.16738       80.21993
C         17.50121       43.14812       79.30429
C         16.52204       43.81357       78.35333
O         15.56185       44.41179       78.82141
C         16.86286       42.01500       80.12563
C         16.42632       40.83615       79.30392
O         15.98861       39.72999       79.93069
O         16.49533       40.84991       78.08589
H         17.28963       44.70996       80.74445
H         18.34416       42.69947       78.73206
H         16.00165       42.39241       80.71771
H         17.63679       41.64273       80.83210
N         16.73589       43.81174       77.00647
C         15.94686       44.62977       76.09967
C         14.47011       44.30035       76.02731
O         13.74491       45.15301       75.53387
H         17.54675       43.30462       76.62113
H         16.36864       44.59525       75.07225
H         16.04141       45.68111       76.45255
N         13.94111       43.10844       76.44265
C         12.49919       42.84441       76.40070
C         11.93892       42.38689       77.74050
O         10.73421       42.17891       77.80888
C         12.13932       41.81666       75.30567
C         12.53432       40.40290       75.65067
N         11.59003       39.44576       75.82065
O         13.71086       40.12010       75.78497
H         14.57737       42.36574       76.76477
H         11.95997       43.77660       76.12387
H         12.59169       42.11767       74.33626
H         11.03543       41.84695       75.17134
H         10.58773       39.66490       75.71940
H         11.85759       38.48112       76.06478
N         12.72195       42.18399       78.84199
C         12.16725       41.68594       80.08547
C         11.69091       40.25999       79.92921
O         10.49399       40.02457       80.01313
H         13.72887       42.39143       78.82150
H         11.33428       42.35410       80.39772
H         12.93528       41.70713       80.88912
N         12.59253       39.24662       79.76378
C         12.21654       37.83754       79.70042
C         12.90248       37.13267       78.50413
O         14.28523       37.09665       78.73342
C         12.60498       37.13343       81.02331
C         11.95509       37.77371       82.22201
C         10.55596       37.80858       82.34419
C         12.74802       38.33991       83.23357
C          9.96096       38.40747       83.45740
C         12.15126       38.93501       84.34686
C         10.75429       38.97180       84.46185
O         10.16557       39.54375       85.53081
H         13.59212       39.48212       79.77120
H         11.11715       37.74653       79.56682
H         13.71045       37.16299       81.14090
H         12.29944       36.06535       80.99118
H          9.92534       37.37463       81.57845
H         13.82871       38.32231       83.16195
H          8.88175       38.43150       83.53883
H         12.77639       39.36664       85.11808
H         10.67964       39.94227       86.24742
N         12.41329       35.75246       78.39473
C         12.93205       35.00031       77.23126
C         11.85963       34.89355       76.15436
O         12.10057       35.32316       75.03461
C         13.39968       33.58707       77.68888
C         14.41883       33.70122       78.85465
C         14.02594       32.81573       76.50378
C         14.77355       32.35595       79.49066
H         11.37326       35.70561       78.48551
H         13.82813       35.51186       76.80612
H         12.51055       33.03168       78.06021
H         13.98504       34.31632       79.67093
H         15.34518       34.20435       78.50089
H         14.28377       31.77675       76.78893
H         13.33062       32.74310       75.64711
H         14.94358       33.32980       76.14558
H         15.27600       31.67761       78.77386
H         15.46876       32.52458       80.33991
H         13.85492       31.86741       79.88076
N         10.64149       34.33652       76.43551
C          9.58379       34.21120       75.44119
C          9.81244       33.02338       74.52255
O          9.16913       32.97741       73.48398
C          8.20382       34.09310       76.11331
O          7.89009       35.26428       76.82054
H         10.44789       34.01776       77.39670
H          9.56749       35.14059       74.82771
H          8.15488       33.20566       76.78502
H          7.42187       33.95630       75.33596
H          8.47007       35.28963       77.62443
N         10.70500       32.02794       74.82644
C         11.00984       30.90344       73.94188
C         11.67271       31.35889       72.64386
O         11.83587       30.54714       71.74300
C          9.76140       30.04240       73.69937
H         11.20154       32.05528       75.72667
H         11.74248       30.23775       74.45071
H          8.96976       30.58627       73.14899
H         10.03198       29.14056       73.10980
H          9.35296       29.70124       74.67497
N         12.15592       32.62728       72.51518
C         12.84078       33.14890       71.34266
C         14.28462       33.45057       71.70927
O         14.68308       33.11204       72.81157
C         12.10475       34.42453       70.90575
H         12.08882       33.27686       73.31081
H         12.83238       32.42509       70.49907
H         12.12888       35.18370       71.71888
H         12.55661       34.86859       69.99610
H         11.04439       34.18799       70.67598
N         15.11041       34.10182       70.83775
C         16.47640       34.56749       71.09771
C         17.49656       33.44585       71.29913
O         18.31175       33.26629       70.40246
C         16.54970       35.74902       72.11084
C         15.94341       35.56213       73.51115
C         16.06095       36.82250       74.31098
O         15.05241       37.41456       74.65936
O         17.27125       37.30822       74.64605
H         14.73188       34.33115       69.90663
H         16.80499       35.04964       70.14612
H         15.99728       36.59923       71.65079
H         17.61457       36.05613       72.20717
H         16.43870       34.74740       74.07246
H         14.85954       35.35666       73.41518
N         17.56140       32.66381       72.41229
C         18.55743       31.62085       72.54573
H         19.57681       32.06054       72.49486
H         18.44192       31.10426       73.52174
H         18.43753       30.87428       71.73141
H         16.91927       32.79722       73.19699
Ca        15.33295       38.40414       77.21597
O         18.85111       39.66710       76.81532
H         18.75250       40.61939       76.56186
H         19.62638       39.65442       77.43085
O         17.63272       36.72830       78.56296
H         17.72736       36.36064       77.64839
H         16.96633       36.13994       78.99887
O         16.31259       40.83955       74.85312
H         17.02202       40.78204       74.16581
H         15.64585       41.46359       74.47004

Ca 1.0



