%chk=apoCaM-CA-Ng.loop1.water5.frame535.chk
%nprocshared=20
%mem=10GB
%nosave
#b3lyp/svp scf=(tight,noincore,xqc) Test 
#IOP(5/87=12) Density=Current Pop=(MK,readradii) iop(6/33=2) iop(6/42=6)

apoCaM-CA-Ng.loop1.water5.frame535 

   0  1 
C         82.80166       -1.67490       35.22938
C         82.71589       -2.62765       34.07344
O         83.70571       -2.82464       33.38390
H         82.07455       -0.84804       35.08318
H         82.55931       -2.20786       36.17274
H         83.82113       -1.24219       35.31225
N         81.53531       -3.25412       33.80374
C         81.30555       -4.18150       32.69578
C         82.13350       -5.46231       32.87221
O         82.90828       -5.54332       33.81596
C         81.54932       -3.44781       31.35038
C         80.83253       -4.00313       30.14342
O         79.89836       -4.96704       30.25190
O         81.02905       -3.49317       29.05237
H         80.72965       -3.04534       34.41481
H         80.22951       -4.46059       32.75209
H         82.64168       -3.39554       31.15692
H         81.16942       -2.40618       31.44070
N         81.97089       -6.53592       32.04095
C         82.64112       -7.82811       32.18695
C         82.25344       -8.57070       33.46563
O         82.77290       -9.66096       33.66389
C         84.18169       -7.70936       32.06795
C         84.62324       -7.09996       30.72615
C         86.13560       -7.24127       30.47082
C         87.01953       -6.49503       31.48166
N         88.43587       -6.67642       31.15809
H         81.31417       -6.46827       31.26013
H         82.30705       -8.48154       31.34944
H         84.60276       -8.73751       32.12529
H         84.60095       -7.12499       32.91203
H         84.31735       -6.03264       30.67068
H         84.11308       -7.65080       29.90609
H         86.35022       -6.84402       29.45475
H         86.40201       -8.32129       30.47891
H         86.83956       -6.88023       32.50787
H         86.77191       -5.41090       31.46098
H         88.64013       -6.30543       30.20168
H         89.01866       -6.15747       31.85389
H         88.68681       -7.69145       31.20056
N         81.35965       -8.06951       34.37280
C         81.04343       -8.72358       35.63614
C         79.52968       -8.93345       35.73526
O         78.81724       -7.97656       35.46364
C         81.54425       -7.82450       36.77969
C         81.58110       -8.57755       38.07653
O         82.30716       -9.55183       38.18809
O         80.84934       -8.17653       39.12657
H         80.89806       -7.16830       34.19993
H         81.61037       -9.66655       35.70255
H         80.91806       -6.90778       36.85407
H         82.58920       -7.50653       36.57019
N         78.91390      -10.09829       36.10387
C         79.55689      -11.30569       36.58964
C         79.01569      -11.64957       37.95989
O         77.82973      -11.92278       38.07870
H         77.88168      -10.11561       36.07561
H         80.65143      -11.21184       36.64880
H         79.33771      -12.14684       35.89812
N         79.84282      -11.66732       39.04154
C         79.43764      -12.06649       40.38404
C         79.60612      -10.92014       41.37288
O         80.63400      -10.26015       41.37015
C         80.22656      -13.32998       40.79536
C         81.72717      -13.19310       40.72490
O         82.36525      -13.88868       39.95050
O         82.37967      -12.33177       41.52504
H         80.83168      -11.41717       38.90495
H         78.36767      -12.37023       40.40630
H         79.92289      -14.14548       40.10111
H         79.93449      -13.63888       41.82200
N         78.63405      -10.66398       42.29665
C         78.75635       -9.63677       43.32209
C         78.52945       -8.21924       42.82422
O         78.60526       -7.31253       43.63836
H         77.80815      -11.28073       42.33530
H         79.74309       -9.73095       43.82504
H         77.97624       -9.81760       44.09424
N         78.16081       -7.94560       41.54168
C         77.80383       -6.60063       41.08800
C         79.00464       -5.66724       41.00561
O         79.97766       -6.00265       40.34853
C         77.03982       -6.65584       39.73547
C         77.86313       -7.16078       38.54430
O         75.91054       -7.48116       39.86951
H         78.02889       -8.73284       40.89368
H         77.06492       -6.17743       41.80617
H         76.70736       -5.62422       39.47303
H         75.26319       -6.99814       40.44697
H         78.71920       -6.49063       38.33178
H         78.23244       -8.19280       38.71065
H         77.22395       -7.16773       37.63752
N         78.98227       -4.44246       41.60617
C         80.05961       -3.46220       41.46906
C         80.74701       -3.16644       42.79523
O         81.65292       -2.35076       42.80416
C         79.56342       -2.17483       40.73772
C         78.40892       -1.45827       41.48529
C         79.17782       -2.53077       39.28770
C         78.01839       -0.11705       40.85469
H         78.15094       -4.18079       42.15847
H         80.88080       -3.86766       40.83622
H         80.42518       -1.47278       40.67785
H         78.73015       -1.25065       42.52819
H         77.50570       -2.10295       41.51665
H         80.03415       -3.02186       38.77668
H         78.30782       -3.22005       39.26387
H         78.93817       -1.62538       38.69575
H         77.21917        0.35871       41.46101
H         78.89360        0.56605       40.82413
H         77.61913       -0.24729       39.82843
N         80.44189       -3.86903       43.92831
C         81.20189       -3.73875       45.16956
C         80.29200       -3.41502       46.33816
O         79.09093       -3.29008       46.17359
C         82.03232       -5.02955       45.41387
C         81.18434       -6.29848       45.50610
O         82.96104       -5.19066       44.37557
H         79.70201       -4.57902       43.90303
H         81.92871       -2.90106       45.10263
H         82.58797       -4.95554       46.37460
H         83.70101       -4.55070       44.54714
H         80.42098       -6.21142       46.30791
H         80.69161       -6.49411       44.53762
H         81.83418       -7.17091       45.72562
N         80.85197       -3.24873       47.57102
C         80.10923       -2.88207       48.76280
C         80.66358       -1.55689       49.24505
O         79.91570       -0.58626       49.28299
C         80.19062       -4.03102       49.80820
C         79.43745       -3.70101       51.09774
O         81.51920       -4.35134       50.13409
H         81.86848       -3.35949       47.66819
H         79.03129       -2.74175       48.52692
H         79.68933       -4.92850       49.37098
H         81.81848       -5.05535       49.50056
H         79.48543       -4.57002       51.78931
H         79.89404       -2.82532       51.60599
H         78.37097       -3.48346       50.87959
N         81.96987       -1.43659       49.61112
C         82.57726       -0.19464       50.05492
C         83.84457        0.05437       49.25621
O         84.71578       -0.80785       49.24304
C         82.82506       -0.30455       51.56608
C         83.28556        1.02075       52.19455
C         83.14943        1.00707       53.72682
C         84.04002       -0.02769       54.42810
N         83.79531       -0.01770       55.87070
H         82.57178       -2.27377       49.60890
H         81.87142        0.65365       49.91192
H         83.53933       -1.12620       51.78948
H         81.84254       -0.56567       52.01953
H         82.61477        1.83219       51.83587
H         84.32299        1.26469       51.87881
H         82.08508        0.80457       53.98117
H         83.40407        2.01781       54.11289
H         85.10790        0.20886       54.22638
H         83.82536       -1.04799       54.04581
H         82.80222       -0.28640       56.06400
H         84.42522       -0.71244       56.33236
H         83.98405        0.93166       56.26640
N         84.02366        1.21600       48.56710
C         85.21297        1.47788       47.76171
C         85.26138        0.55563       46.54126
O         86.20324       -0.22044       46.46914
C         85.32829        2.97424       47.39696
C         85.61792        3.82626       48.64351
C         85.67592        5.28489       48.29591
O         84.58680        5.90306       47.79988
O         86.70170        5.92128       48.47608
H         83.30002        1.94829       48.64183
H         86.11575        1.25598       48.37788
H         84.39715        3.33860       46.92996
H         86.17102        3.11731       46.68432
H         86.59060        3.50632       49.08051
H         84.82688        3.68226       49.40896
N         84.32498        0.51987       45.54503
C         83.15432        1.36411       45.45554
H         82.51952        1.25383       46.35723
H         83.44449        2.41746       45.29100
H         82.55249        1.07063       44.56887
H         84.45233       -0.17208       44.78916
Ca        83.36944       -9.36203       40.93489
O         83.11289       -6.47243       41.76588
H         83.61700       -6.94092       42.47807
H         82.16275       -6.60443       42.01103
O         85.94707       -9.13666       42.48751
H         86.15263       -8.82497       41.57050
H         85.64689       -8.32247       42.96434
O         82.71563      -10.45684       43.73126
H         83.31839       -9.76689       44.10627
H         82.07541      -10.65537       44.45944
O         85.47531      -10.92470       39.39476
H         85.42162      -11.83116       39.78931
H         85.10133      -11.02674       38.48362
O         84.72920       -7.58073       38.70180
H         85.29955       -7.26794       39.44802
H         85.31214       -8.18749       38.17972

Ca 1.0



