%chk=apoCaM-CA-Ng.loop3.water3.frame736.chk
%nprocshared=20
%mem=10GB
%nosave
#b3lyp/svp scf=(tight,noincore,xqc) Test 
#IOP(5/87=12) Density=Current Pop=(MK,readradii) iop(6/33=2) iop(6/42=6)

apoCaM-CA-Ng.loop3.water3.frame736 

   0  1 
C        106.66260        9.49073      -12.88381
C        107.27203        8.81727      -14.07758
O        107.05982        9.28113      -15.18899
H        105.55661        9.47125      -12.96848
H        106.95648        8.98598      -11.93926
H        107.00847       10.54492      -12.83939
N        108.05877        7.71620      -13.92260
C        108.71657        7.05334      -15.04052
C        107.68687        6.52034      -16.02484
O        106.84072        5.72625      -15.63900
C        109.66335        5.94890      -14.51539
C        110.59962        5.38040      -15.55334
O        111.53987        4.69091      -15.19172
O        110.45667        5.65712      -16.86451
H        108.22274        7.36029      -12.96769
H        109.36521        7.80653      -15.53146
H        109.10411        5.13766      -14.00419
H        110.31941        6.43474      -13.76246
N        107.72033        6.92275      -17.32834
C        106.79874        6.46229      -18.36164
C        106.79224        4.94976      -18.44362
O        105.72310        4.35621      -18.43759
C        107.20029        7.00737      -19.75891
C        107.08622        8.53775      -19.90209
C        107.28304        9.00567      -21.35962
C        108.70714        8.79513      -21.90330
N        108.79485        9.21897      -23.30240
H        108.46398        7.56996      -17.60872
H        105.76731        6.81316      -18.13408
H        106.50571        6.55681      -20.50274
H        108.23264        6.67709      -20.00345
H        107.80250        9.06361      -19.23558
H        106.05640        8.83117      -19.60445
H        107.05330       10.09233      -21.41283
H        106.55424        8.47196      -22.00844
H        108.99494        7.72493      -21.84506
H        109.42420        9.38672      -21.29167
H        109.77698        9.09673      -23.64006
H        108.16325        8.62959      -23.89310
H        108.52599       10.22502      -23.39911
N        107.96541        4.26774      -18.52221
C        108.06504        2.82800      -18.71523
C        108.54736        2.08571      -17.47225
O        108.64229        0.86762      -17.53923
C        108.93145        2.55957      -19.96917
C        110.27421        3.25253      -19.95793
O        111.19368        2.96910      -19.02303
O        110.53263        4.08876      -20.80854
H        108.83901        4.80583      -18.45662
H        107.06143        2.39307      -18.91641
H        108.36739        2.94399      -20.84723
H        109.07469        1.46792      -20.11208
N        108.79966        2.71701      -16.28652
C        109.13955        2.00281      -15.05915
C        110.45416        1.24513      -15.09803
O        110.73939        0.55689      -14.12754
H        108.67344        3.73270      -16.21914
H        108.32224        1.28067      -14.84158
H        109.18727        2.71951      -14.21210
N        111.29228        1.29593      -16.17134
C        112.50347        0.49781      -16.29963
C        113.71944        1.38294      -16.53450
O        113.57371        2.52713      -16.94512
C        112.29856       -0.44534      -17.51001
C        113.43215       -1.40646      -17.75491
N        113.73512       -2.36330      -16.84852
O        114.07010       -1.33336      -18.79481
H        111.04619        1.89425      -16.96172
H        112.66591       -0.10097      -15.37718
H        112.15102        0.18304      -18.41837
H        111.37217       -1.04246      -17.36407
H        113.19444       -2.45209      -15.97633
H        114.50356       -3.02652      -17.02737
N        114.96860        0.87573      -16.34089
C        116.19166        1.55547      -16.72744
C        116.39709        2.89250      -16.05923
O        116.48588        2.95445      -14.84137
H        115.06278       -0.07559      -15.95430
H        116.18575        1.67817      -17.83128
H        117.05949        0.91036      -16.47094
N        116.51879        4.01160      -16.82779
C        116.86908        5.32698      -16.30577
C        115.62020        6.16198      -16.08525
O        114.51877        5.66228      -16.25606
C        117.86775        6.00890      -17.27901
C        119.09915        5.16436      -17.50391
C        119.96788        4.87176      -16.43934
C        119.38733        4.65808      -18.78314
C        121.09763        4.07544      -16.64854
C        120.51683        3.86109      -18.98960
C        121.37323        3.56352      -17.92483
O        122.45353        2.78585      -18.13890
H        116.40783        3.92217      -17.85024
H        117.36300        5.23217      -15.31405
H        118.19852        6.99717      -16.89852
H        117.35325        6.18631      -18.24564
H        119.77058        5.25823      -15.44754
H        118.73474        4.87219      -19.62065
H        121.75577        3.85505      -15.81768
H        120.72378        3.47097      -19.97829
H        123.06474        2.54724      -17.42744
N        115.73817        7.45323      -15.66641
C        114.64295        8.36129      -15.34477
C        113.71258        8.53732      -16.58731
O        112.64435        7.66009      -16.44022
C        113.89086        7.91995      -14.03054
C        113.01783        9.09393      -13.51020
C        114.88354        7.43818      -12.95316
C        112.21459        8.78420      -12.24386
H        116.68598        7.83836      -15.54567
H        115.13849        9.33378      -15.12542
H        113.24440        7.03860      -14.23773
H        112.29070        9.38677      -14.29596
H        113.67119        9.96825      -13.29700
H        114.34889        7.06394      -12.05694
H        115.46373        6.56582      -13.32174
H        115.58527        8.24526      -12.66320
H        111.52864        7.93109      -12.41383
H        112.87681        8.56083      -11.38324
H        111.61227        9.67506      -11.96676
N        113.19493        9.91150      -16.76034
C        112.51591       10.07893      -18.07708
C        112.88314       11.40057      -18.75039
O        112.00659       12.21281      -19.01932
C        110.98010        9.99893      -17.91474
O        110.57646        8.75266      -17.44669
H        114.01823       10.55242      -16.70198
H        112.83566        9.28596      -18.79035
H        110.46805       10.19647      -18.88686
H        110.62769       10.77649      -17.20328
H        110.61806        8.13744      -18.22397
N        114.17891       11.66405      -19.08080
C        114.59026       12.87935      -19.77829
C        115.35700       12.53158      -21.05123
O        115.95854       11.46750      -21.08723
C        115.45957       13.71107      -18.84776
H        114.90387       10.97675      -18.82330
H        113.69797       13.48392      -20.03493
H        115.74012       14.64999      -19.35160
H        114.88842       13.96722      -17.93004
H        116.37666       13.15407      -18.56119
N        115.36924       13.31633      -22.17341
C        114.65379       14.57536      -22.34882
C        115.47055       15.55901      -23.19020
O        115.91431       15.16230      -24.26050
C        113.34463       14.28728      -23.08692
H        115.84382       12.92705      -23.00452
H        114.37694       15.01329      -21.37604
H        112.72213       13.58568      -22.49182
H        112.77155       15.22939      -23.22632
H        113.53928       13.83236      -24.08196
N        115.65650       16.87511      -22.86400
C        115.10613       17.51372      -21.67223
C        115.91446       17.19874      -20.42252
O        115.45975       17.55018      -19.34119
C        114.96050       19.04290      -21.86332
C        116.28773       19.81360      -21.97879
C        116.02543       21.28328      -22.15037
O        116.47030       22.16104      -21.23101
O        115.41104       21.68997      -23.12417
H        116.13571       17.46416      -23.56144
H        114.06216       17.15408      -21.54881
H        114.39888       19.45208      -20.99374
H        114.34674       19.22226      -22.77427
H        116.88270       19.46031      -22.84531
H        116.88648       19.66071      -21.05548
N        117.13055       16.57941      -20.48608
C        117.94137       16.28637      -19.32030
H        118.90889       16.82383      -19.39934
H        117.44765       16.58748      -18.37234
H        118.14311       15.19566      -19.27727
H        117.52837       16.31210      -21.39797
Ca       112.30791        6.10641      -18.04787
O        111.66995        7.44147      -20.64952
H        111.74830        6.50552      -20.96096
H        112.57824        7.81647      -20.76725
O        114.95431        6.55047      -19.27277
H        114.93486        7.49862      -19.55513
H        115.61003        6.12235      -19.87795
O        114.08215        3.62459      -19.95624
H        113.82642        2.71298      -20.24537
H        114.64842        3.96695      -20.69256

Ca 1.0



