%chk=apoCaM-CA-Ng.loop4.water4.frame766.chk
%nprocshared=20
%mem=10GB
%nosave
#b3lyp/svp scf=(tight,noincore,xqc) Test 
#IOP(5/87=12) Density=Current Pop=(MK,readradii) iop(6/33=2) iop(6/42=6)

apoCaM-CA-Ng.loop4.water4.frame766 

   -3  1 
C        106.81534        6.96360       18.65440
C        108.27158        6.72547       18.92948
O        108.65534        5.58685       19.13260
H        106.20887        6.60686       19.51185
H        106.60250        8.04233       18.49415
H        106.51761        6.41016       17.73917
N        109.14560        7.76687       18.95449
C        110.58697        7.65338       19.16652
C        111.24989        6.87858       18.02170
O        112.13902        6.07207       18.26255
C        110.92923        7.02164       20.53847
C        110.02537        7.45271       21.66085
O        109.34197        6.60178       22.21030
O        109.92252        8.72833       22.08430
H        108.77502        8.71817       18.80151
H        110.98068        8.69479       19.14980
H        111.99396        7.21175       20.79178
H        110.80438        5.91910       20.45172
N        110.81807        7.04673       16.73976
C        111.37926        6.32591       15.59333
C        112.83585        6.74248       15.39347
O        113.07880        7.93879       15.32589
C        110.49806        6.52656       14.31037
C        110.34252        8.00516       13.86212
C        109.13504        5.83453       14.53138
C        109.56287        8.15879       12.55414
H        110.03136        7.69118       16.58946
H        111.33957        5.23967       15.81160
H        110.98587        5.99672       13.46968
H        111.34678        8.43625       13.68126
H        109.83419        8.61435       14.63563
H        109.29369        4.76868       14.80168
H        108.55673        6.32133       15.34396
H        108.52334        5.82736       13.60840
H        108.51047        7.82915       12.66780
H        109.54449        9.22888       12.26070
H        110.04872        7.57502       11.74363
N        113.89081        5.86737       15.34564
C        113.81192        4.40544       15.31479
C        115.20339        3.80989       15.48742
O        116.08448        4.10591       14.69105
C        113.23448        3.93078       13.96114
C        113.16236        2.43559       13.85232
O        112.40090        1.73248       14.71200
O        113.77735        1.85586       12.97103
H        114.83220        6.29087       15.30659
H        113.17672        4.04527       16.15218
H        113.86402        4.33288       13.13513
H        112.21092        4.30049       13.82270
N        115.45598        2.93651       16.50268
C        116.75368        2.31841       16.72749
C        116.71381        0.80758       16.60861
O        117.73390        0.19057       16.87991
H        114.69335        2.69064       17.15341
H        117.07771        2.58215       17.75778
H        117.52201        2.69816       16.02255
N        115.58174        0.13702       16.24297
C        115.47057       -1.31706       16.25035
C        115.06616       -1.92187       14.90865
O        115.53439       -3.01691       14.62601
C        114.53344       -1.76140       17.39867
C        113.25068       -0.97131       17.52389
O        113.01260       -0.27544       18.65203
O        112.43036       -0.93643       16.62473
H        114.73162        0.67060       16.01960
H        116.44804       -1.79251       16.49492
H        115.08646       -1.60281       18.35054
H        114.32547       -2.85116       17.31927
N        114.18556       -1.33179       14.04706
C        113.71183       -2.01601       12.84558
C        112.78371       -3.18344       13.17644
O        112.41052       -3.92029       12.27584
H        113.82262       -0.39347       14.24744
H        114.58973       -2.36364       12.25743
H        113.13714       -1.30907       12.20841
N        112.33086       -3.36865       14.44951
C        111.43630       -4.41158       14.92406
C        110.06453       -4.38087       14.26360
O        109.41419       -5.41185       14.17292
C        112.14496       -5.78299       14.99775
C        113.38681       -5.66828       15.91172
C        114.03230       -6.99025       16.22815
N        114.62218       -7.73299       15.26523
O        114.04708       -7.38349       17.38551
H        112.61763       -2.70961       15.17096
H        111.20118       -4.15684       15.98321
H        112.42839       -6.14588       13.98632
H        111.44288       -6.51308       15.45583
H        113.06912       -5.21008       16.87456
H        114.14446       -5.00116       15.45262
H        114.64518       -7.41089       14.28775
H        115.07655       -8.62665       15.50746
N        109.52341       -3.18713       13.88382
C        108.14180       -2.99538       13.44034
C        107.45871       -1.88745       14.25094
O        106.34791       -1.50943       13.90157
C        108.10277       -2.64459       11.92462
C        108.89660       -1.37426       11.57232
C        108.59177       -3.82833       11.08141
H        110.12008       -2.34784       13.92800
H        107.54287       -3.92326       13.57353
H        107.04034       -2.47065       11.64013
H        108.52233       -0.50275       12.14950
H        109.97935       -1.50551       11.77819
H        108.77682       -1.14292       10.49251
H        108.48734       -3.59598       10.00035
H        109.65507       -4.06079       11.29786
H        107.97566       -4.72776       11.29828
N        108.07120       -1.29516       15.31713
C        107.58440       -0.09075       15.97848
C        107.24078       -0.38437       17.43248
O        107.42920       -1.51223       17.87215
C        108.72800        0.94514       15.82097
C        108.46299        2.31921       16.36020
N        109.27010        2.84511       17.30955
O        107.52842        2.97456       15.92348
H        108.96877       -1.66503       15.66321
H        106.66519        0.29266       15.48418
H        108.94522        1.06270       14.73695
H        109.64443        0.53398       16.30106
H        110.06854        2.31502       17.68896
H        109.10272        3.79339       17.65977
N        106.75307        0.59641       18.24931
C        106.54930        0.41021       19.68174
C        105.19529        0.96098       20.10955
O        104.62441        1.75216       19.36880
C        107.73364        1.12622       20.36445
C        107.99730        0.73508       21.79269
C        107.30208        1.32232       22.85978
C        109.00238       -0.21124       22.06308
C        107.61090        0.96418       24.17810
C        109.30268       -0.57217       23.37444
C        108.61365        0.01478       24.43750
O        108.92966       -0.33644       25.69965
H        106.61990        1.54356       17.87122
H        106.59880       -0.67379       19.92471
H        107.69452        2.23162       20.24213
H        108.63499        0.81072       19.79105
H        106.53931        2.06741       22.67367
H        109.55634       -0.67457       21.25486
H        107.07728        1.42939       24.99658
H        110.07847       -1.30439       23.56101
H        108.49104        0.05324       26.46832
N        104.61454        0.59386       21.29134
C        103.36683        1.18589       21.77048
C        103.62624        1.84716       23.11492
O        103.87088        1.12453       24.07170
C        102.23771        0.14163       21.89809
C        101.87577       -0.49438       20.54925
C        100.72551       -1.45005       20.70174
O        100.83719       -2.52265       21.50884
O         99.68516       -1.26169       20.09108
H        105.08314       -0.10996       21.88249
H        103.00942        1.93442       21.04872
H        101.33146        0.65441       22.29437
H        102.53292       -0.65413       22.61735
H        102.74890       -1.04673       20.14222
H        101.59467        0.30638       19.82958
N        103.65742        3.20157       23.29832
C        103.50650        4.19076       22.23511
C        102.08277        4.24980       21.72348
O        101.16682        4.44617       22.51065
C        103.94020        5.60193       22.69018
C        105.42237        5.62878       23.10130
C        105.97833        7.02198       23.13854
O        106.53818        7.53301       24.25149
O        106.03129        7.66794       22.10366
H        103.88428        3.53894       24.24675
H        104.19832        3.92894       21.40285
H        103.30753        5.99046       23.51864
H        103.80753        6.26772       21.80783
H        106.02617        5.08770       22.33915
H        105.56440        5.11792       24.07667
N        101.83285        4.12490       20.39046
C        100.49778        4.19462       19.84200
H        100.03217        5.17034       20.09712
H        100.54131        4.10237       18.73553
H         99.87964        3.36588       20.24594
H        102.61875        3.99340       19.73537
Ca       108.35657        8.76118       23.71831
O        109.56219        7.55125       26.22702
H        108.98578        7.55663       27.03190
H        109.86145        6.61150       26.14129
O        106.83227       11.50924       23.52794
H        106.94042       12.17572       24.25225
H        105.87740       11.57107       23.27362
O        107.42236       10.12142       26.38598
H        107.50068        9.71551       27.28542
H        106.53151       10.55339       26.38504
O        110.29927       10.87978       24.75109
H        110.83506       10.20375       25.23739
H        110.96453       11.40115       24.23561

Ca 1.0



