%chk=apoCaM-CA-Ng.loop1.water3.frame1096.chk
%nprocshared=20
%mem=10GB
%nosave
#b3lyp/svp scf=(tight,noincore,xqc) Test 
#IOP(5/87=12) Density=Current Pop=(MK,readradii) iop(6/33=2) iop(6/42=6)

apoCaM-CA-Ng.loop1.water3.frame1096 

   0  1 
C         57.38936       62.45772       68.20466
C         56.26537       62.71567       69.16394
O         55.12544       62.74607       68.73089
H         58.34441       62.28832       68.74627
H         57.16675       61.54054       67.62169
H         57.51787       63.32168       67.52196
N         56.54099       62.85588       70.49275
C         55.57383       62.97888       71.58691
C         55.03674       64.40714       71.75161
O         55.19375       65.02699       72.79435
C         56.20008       62.37067       72.87047
C         57.40642       63.08078       73.45132
O         58.27630       63.55725       72.74005
O         57.63369       62.99392       74.77438
H         57.52771       62.73435       70.73986
H         54.70854       62.31683       71.36285
H         56.51330       61.33387       72.61422
H         55.43088       62.27612       73.66586
N         54.32895       64.95018       70.73021
C         53.73992       66.27745       70.65555
C         52.26805       66.20816       71.00323
O         51.87884       66.94771       71.89780
C         53.98415       66.87189       69.25194
C         55.47902       67.04298       69.01743
C         55.77585       67.39512       67.56444
C         57.27373       67.65372       67.41534
N         57.62092       67.95109       66.03055
H         54.18909       64.35969       69.92389
H         54.22002       66.96120       71.39422
H         53.47915       67.85585       69.14119
H         53.58817       66.22190       68.45499
H         56.01964       66.09751       69.24617
H         55.84336       67.83919       69.70137
H         55.20321       68.29774       67.26143
H         55.47193       66.54284       66.91243
H         57.84154       66.75778       67.75410
H         57.55257       68.51590       68.06167
H         58.65276       68.10605       65.97196
H         57.36092       67.14622       65.41522
H         57.12414       68.81593       65.71679
N         51.36645       65.34129       70.44842
C         51.60082       64.34094       69.39772
C         51.84242       62.95827       69.98116
O         51.93774       62.81809       71.19118
C         50.46937       64.38016       68.35856
C         49.11134       64.26421       68.96533
O         48.75068       63.18431       69.69511
O         48.34928       65.20147       68.83295
H         50.42914       65.35190       70.87880
H         52.49036       64.54823       68.80722
H         50.59463       63.58562       67.59798
H         50.53460       65.35752       67.82824
N         52.06999       61.89646       69.15547
C         52.40513       60.57410       69.65684
C         51.21348       59.76058       70.11674
O         50.07894       60.12956       69.86792
H         52.12043       62.05654       68.13912
H         53.13538       60.68002       70.48467
H         52.89117       59.98828       68.85014
N         51.44072       58.61111       70.81656
C         50.40746       57.70009       71.32578
C         50.84114       56.25093       71.11448
O         52.01279       56.03078       70.83577
C         50.20680       57.97711       72.83629
C         49.63555       59.34344       73.01966
O         48.46559       59.65481       72.39732
O         50.23155       60.15366       73.71154
H         52.42236       58.40834       71.05531
H         49.45185       57.85912       70.78096
H         51.17725       57.88029       73.37742
H         49.50072       57.28143       73.31111
N         50.01307       55.17334       71.26545
C         48.58260       55.18179       71.54412
C         47.74606       55.49731       70.32910
O         47.99261       54.92724       69.27429
H         50.44388       54.23875       71.17420
H         48.32218       55.81613       72.40507
H         48.29962       54.14928       71.83125
N         46.70559       56.37669       70.42220
C         45.86068       56.74760       69.29223
C         46.36227       58.07428       68.74531
O         46.97276       58.84091       69.47400
C         44.35316       56.74018       69.69841
C         43.38758       56.96261       68.52111
O         44.11957       57.71051       70.68507
H         46.53465       56.84177       71.32544
H         45.98142       55.98447       68.48795
H         44.13989       55.73106       70.11845
H         43.18286       57.61519       70.99809
H         43.40762       58.01786       68.17629
H         43.62787       56.28848       67.67316
H         42.35014       56.72929       68.85281
N         46.23012       58.34437       67.42201
C         46.73640       59.51915       66.71697
C         46.10621       60.82507       67.23799
O         46.42655       61.26834       68.33157
C         48.30633       59.60938       66.67210
C         49.04191       58.25123       66.47283
C         48.74566       60.59738       65.57284
C         48.65637       57.46713       65.21499
H         45.74415       57.64210       66.84298
H         46.41475       59.36989       65.66338
H         48.66615       60.00160       67.64747
H         48.84586       57.60620       67.35397
H         50.14308       58.42873       66.44689
H         48.45125       60.22187       64.56914
H         48.27619       61.59177       65.71391
H         49.84927       60.72684       65.58473
H         49.18457       56.48922       65.21832
H         47.56756       57.26700       65.20022
H         48.94738       58.00332       64.28883
N         45.23573       61.51587       66.44910
C         44.74641       62.87572       66.72304
C         43.51517       62.96599       67.63332
O         43.10667       64.07792       67.94444
C         44.46745       63.62055       65.37510
C         43.53657       62.87331       64.39725
O         45.67707       63.86537       64.70822
H         45.03273       61.09183       65.53883
H         45.54413       63.44617       67.24944
H         43.97600       64.59539       65.60035
H         46.14566       64.57471       65.22063
H         43.25001       63.54966       63.56480
H         44.05492       62.01688       63.91422
H         42.61626       62.50421       64.89483
N         42.84158       61.86592       68.05278
C         41.55987       61.92373       68.76245
C         41.68400       62.31662       70.24046
O         42.40043       61.67327       70.98417
C         40.83227       60.58298       68.53218
C         39.55623       60.45122       69.35330
O         40.48285       60.50891       67.16935
H         43.18596       60.94919       67.73513
H         40.90687       62.67990       68.26885
H         41.48751       59.72500       68.81674
H         41.14868       59.93464       66.71117
H         38.92467       61.35593       69.23672
H         38.98945       59.56261       69.00637
H         39.81087       60.30679       70.42510
N         40.95377       63.36811       70.72545
C         40.92891       63.86140       72.10627
C         42.32750       63.96906       72.71697
O         42.59569       63.37422       73.75270
C         39.90748       63.09933       72.99679
C         38.51305       62.93949       72.34997
C         37.49297       62.35366       73.34436
C         36.15006       62.02421       72.66462
N         35.08011       61.87026       73.65334
H         40.33426       63.86460       70.06836
H         40.53387       64.90053       72.05860
H         39.79668       63.68470       73.94011
H         40.28375       62.08805       73.25124
H         38.60262       62.27464       71.46865
H         38.12675       63.92751       72.00957
H         37.33782       63.10990       74.14353
H         37.87834       61.42104       73.81434
H         36.26695       61.08555       72.07472
H         35.85472       62.83378       71.96304
H         35.35052       61.19539       74.40413
H         34.87316       62.80340       74.08105
H         34.21234       61.53066       73.17830
N         43.25940       64.75906       72.11425
C         44.63949       64.93080       72.56839
C         45.55962       64.65165       71.38996
O         46.18808       63.60491       71.41310
C         44.83542       66.32490       73.20382
C         44.32381       66.37151       74.64959
C         44.30804       67.78313       75.15933
O         45.40808       68.32099       75.71907
O         43.29858       68.45964       75.04048
H         42.96590       65.26210       71.26610
H         44.89273       64.17285       73.34698
H         44.27782       67.07745       72.61442
H         45.91077       66.60290       73.22215
H         44.98171       65.74790       75.29681
H         43.29487       65.96139       74.71928
N         45.68348       65.44204       70.28417
C         45.19205       66.78977       70.10274
H         44.16892       66.93071       70.47838
H         45.91462       67.50997       70.55049
H         45.15912       67.01563       69.01617
H         46.23538       65.06938       69.51056
Ca        48.04108       61.40465       70.95000
O         45.34537       60.44797       71.23304
H         45.49534       59.49901       71.45782
H         44.37306       60.50302       71.10277
O         49.51188       62.81394       72.70276
H         49.88624       61.95140       72.41509
H         49.83676       63.41635       71.99733
O         46.53425       61.63415       73.57619
H         47.08642       60.99629       74.09241
H         47.02702       62.48995       73.63605

Ca 1.0



