%chk=apoCaM-CA-Ng.loop4.water3.frame315.chk
%nprocshared=20
%mem=10GB
%nosave
#b3lyp/svp scf=(tight,noincore,xqc) Test 
#IOP(5/87=12) Density=Current Pop=(MK,readradii) iop(6/33=2) iop(6/42=6)

apoCaM-CA-Ng.loop4.water3.frame315 

   -3  1 
C         62.94929       73.73661       29.10438
C         63.93202       72.60774       29.04087
O         64.65765       72.42639       30.00135
H         62.26676       73.57730       29.96697
H         63.49358       74.69319       29.24839
H         62.34265       73.80116       28.17828
N         63.99038       71.78393       27.95562
C         64.87593       70.63014       27.85302
C         64.64119       69.62680       28.96465
O         65.54639       69.35115       29.72626
C         66.35772       70.98260       27.51530
C         67.12028       72.12138       28.17151
O         67.49348       72.15859       29.46669
O         67.52213       73.02197       27.45102
H         63.33077       71.94441       27.17969
H         64.57599       70.04976       26.94949
H         66.33433       71.25795       26.43578
H         66.96801       70.05462       27.57229
N         63.43001       68.99070       29.03020
C         63.03423       67.87352       29.89678
C         63.78085       66.58819       29.54236
O         63.14234       65.67062       29.04398
C         63.08029       68.20049       31.41301
C         62.56935       67.01406       32.28221
C         62.28502       69.47815       31.72767
C         61.11777       66.57756       32.04100
H         62.71048       69.29935       28.35738
H         61.96575       67.68123       29.65056
H         64.13408       68.38809       31.71152
H         62.65076       67.30561       33.34268
H         63.22474       66.12984       32.12936
H         62.71842       70.34829       31.19262
H         61.22224       69.38041       31.42534
H         62.32693       69.68968       32.81585
H         60.86803       65.74517       32.73281
H         60.40831       67.40559       32.24209
H         60.97084       66.20460       31.00758
N         65.11897       66.43867       29.75807
C         65.85410       65.24389       29.38199
C         65.49878       64.08318       30.31697
O         64.95744       63.11104       29.81002
C         67.36037       65.57491       29.24308
C         68.17430       64.39516       28.79854
O         67.92987       63.84184       27.73813
O         69.19863       63.96062       29.55659
H         65.65289       67.19497       30.18772
H         65.54683       64.96904       28.34550
H         67.78295       65.99285       30.17089
H         67.47060       66.37648       28.47892
N         65.71053       64.07089       31.67178
C         66.38221       65.13141       32.41143
C         66.48271       64.88684       33.91259
O         65.95885       63.88604       34.38052
H         65.38411       63.23654       32.18229
H         65.84741       66.08541       32.25161
H         67.40257       65.15522       32.03449
N         67.13577       65.73317       34.77688
C         67.83694       66.98205       34.46228
C         66.85523       68.00253       33.89208
O         66.97208       68.34188       32.72285
C         69.10399       66.72799       33.59789
C         70.06022       67.89176       33.55062
O         71.10065       67.78521       32.92129
O         69.80636       69.03688       34.21024
H         67.13495       65.46499       35.77394
H         68.25120       67.38551       35.41125
H         68.85869       66.48388       32.55491
H         69.66418       65.87719       34.04355
N         65.82804       68.53385       34.62743
C         65.63663       68.35776       36.06130
C         64.36598       67.62265       36.39611
O         63.62858       67.22962       35.50725
H         65.15700       69.15113       34.15007
H         65.62531       69.35847       36.54448
H         66.46051       67.78344       36.51846
N         64.09810       67.32330       37.69726
C         63.01668       66.42186       38.08257
C         61.61891       67.01604       37.96847
O         60.67244       66.24995       38.08865
C         63.24909       65.88283       39.51257
C         63.05284       66.94557       40.61121
C         63.38279       66.39740       41.97414
N         62.71111       65.33645       42.47986
O         64.26543       66.92408       42.63495
H         64.78339       67.62560       38.40647
H         63.08396       65.54155       37.40374
H         64.28231       65.47340       39.56652
H         62.54370       65.04417       39.69469
H         61.99653       67.28209       40.61493
H         63.69827       67.82757       40.41205
H         61.95840       64.88027       41.94481
H         62.94494       64.96818       43.41352
N         61.39883       68.35757       37.82646
C         60.05483       68.94119       37.83130
C         59.80531       69.79746       39.07271
O         58.70413       70.31908       39.18436
C         59.77488       69.74344       36.52934
C         59.88326       68.84739       35.28742
C         60.68174       70.97024       36.37720
H         62.20647       68.99447       37.77111
H         59.28568       68.13875       37.87539
H         58.72500       70.11242       36.57432
H         60.91554       68.45729       35.16524
H         59.18080       67.99106       35.37161
H         59.61335       69.42328       34.37579
H         60.56957       71.65592       37.24342
H         61.74574       70.67433       36.29006
H         60.38986       71.52845       35.46275
N         60.74365       69.96717       40.05673
C         60.49259       70.75179       41.26718
C         61.45156       71.92726       41.42092
O         61.12403       72.83528       42.17296
C         60.59798       69.85091       42.51433
C         59.66243       68.66751       42.45816
N         58.32198       68.84002       42.39501
O         60.12306       67.53607       42.48098
H         61.65169       69.49575       39.97219
H         59.46919       71.18397       41.23157
H         60.36658       70.44155       43.42742
H         61.64528       69.48143       42.60035
H         57.90910       69.78325       42.38473
H         57.69306       68.02378       42.36040
N         62.67564       71.95310       40.81704
C         63.64092       73.03890       40.98442
C         64.13377       73.52256       39.64055
O         64.13282       72.72250       38.72527
C         64.87910       72.49752       41.72436
C         64.56914       72.01968       43.11598
C         64.16144       72.93194       44.10141
C         64.71069       70.66223       43.44814
C         63.90791       72.49408       45.40350
C         64.45000       70.22522       44.74906
C         64.05349       71.13812       45.73207
O         63.82118       70.70361       46.98659
H         62.97545       71.14859       40.25080
H         63.20331       73.89042       41.54993
H         65.66416       73.28241       41.79708
H         65.30331       71.66139       41.12210
H         64.05500       73.98340       43.86471
H         65.02380       69.94162       42.70234
H         63.60491       73.21051       46.15628
H         64.56403       69.17682       44.99397
H         63.56031       71.30537       47.69820
N         64.72329       74.75548       39.52599
C         65.50046       75.30183       38.40100
C         64.75195       75.55089       37.08446
O         64.76511       76.68783       36.63079
C         66.87931       74.61271       38.22169
C         66.91335       73.13873       37.79937
C         68.33392       72.67315       37.64268
O         68.80553       71.67382       38.41319
O         69.06650       73.19331       36.81596
H         64.68585       75.35783       40.36340
H         65.81073       76.32337       38.72741
H         67.42755       74.69818       39.18731
H         67.44297       75.20470       37.46580
H         66.38328       72.99436       36.83589
H         66.45372       72.51127       38.58448
N         64.10969       74.56703       36.39529
C         63.47330       74.74001       35.09191
C         62.36950       75.79656       35.09387
O         61.90499       76.13390       34.01327
C         62.83413       73.40394       34.60829
C         63.72074       72.13765       34.63084
C         64.86320       72.17023       33.67370
O         65.71491       73.04160       33.73978
O         64.98598       71.17591       32.77722
H         64.10537       73.64005       36.78366
H         64.26373       75.06622       34.38185
H         62.42074       73.53352       33.58356
H         61.98538       73.19736       35.29154
H         63.08118       71.27113       34.36636
H         64.11577       71.91613       35.63885
N         61.87676       76.34114       36.24658
C         60.83373       77.34680       36.27190
H         59.96238       76.95712       36.83839
H         61.21561       78.25617       36.78153
H         60.49221       77.63431       35.25565
H         62.22907       76.03194       37.16211
Ca        66.65225       71.20753       31.29790
O         68.51330       73.62180       32.15853
H         69.42757       73.47376       31.80841
H         68.64446       73.82713       33.11830
O         67.79305       71.06379       34.23192
H         67.93107       71.21371       35.19961
H         68.63724       71.35936       33.80854
O         69.20129       69.50672       30.66336
H         69.31931       69.94403       29.78312
H         70.03566       69.71282       31.15454

Ca 1.0



