%chk=apoCaM-CA-Ng.loop1.water3.frame720.chk
%nprocshared=20
%mem=10GB
%nosave
#b3lyp/svp scf=(tight,noincore,xqc) Test 
#IOP(5/87=12) Density=Current Pop=(MK,readradii) iop(6/33=2) iop(6/42=6)

apoCaM-CA-Ng.loop1.water3.frame720 

   0  1 
C         65.61385      101.76373       21.17091
C         66.82800      102.61635       21.39282
O         66.72415      103.62499       22.07554
H         64.82496      102.36742       20.67580
H         65.84425      100.89005       20.52473
H         65.23579      101.39237       22.14567
N         68.02147      102.26630       20.84055
C         69.24224      103.05112       20.98380
C         69.73471      103.53758       19.63318
O         69.20829      103.12288       18.60970
C         70.31144      102.25049       21.77360
C         70.32015      100.74420       21.56471
O         70.55462      100.14563       20.37843
O         70.09254      100.02650       22.52667
H         68.06886      101.40282       20.27742
H         69.04375      103.98547       21.55438
H         70.06834      102.39303       22.85068
H         71.32309      102.68324       21.62095
N         70.70120      104.50335       19.57016
C         71.23123      105.02996       18.31766
C         72.74201      104.94354       18.31754
O         73.37704      105.39169       19.26282
C         70.74828      106.47148       18.04539
C         71.23490      106.92990       16.65028
C         70.53574      108.19238       16.13590
C         71.03721      108.52309       14.71874
N         70.30016      109.64032       14.13232
H         71.05522      104.90620       20.45231
H         70.83656      104.43605       17.46741
H         71.07993      107.18521       18.83126
H         69.63649      106.44540       18.04097
H         71.00948      106.12452       15.91629
H         72.33653      107.08543       16.67040
H         70.72150      109.05069       16.81652
H         69.44223      107.99506       16.09200
H         70.90525      107.63362       14.06234
H         72.12097      108.77148       14.75893
H         70.40450      110.49583       14.72317
H         70.68202      109.83411       13.17766
H         69.28861      109.38929       14.04133
N         73.38303      104.43361       17.23152
C         74.83210      104.32030       17.13405
C         75.25052      104.04426       15.69413
O         74.59976      103.24852       15.03024
C         75.37988      103.21990       18.07276
C         74.83087      101.85578       17.76170
O         75.57605      100.95281       17.41672
O         73.51460      101.61966       17.87761
H         72.80759      104.16173       16.42155
H         75.27575      105.28685       17.44703
H         75.13958      103.46110       19.12873
H         76.48725      103.19178       17.98132
N         76.37402      104.58380       15.14227
C         77.32578      105.41020       15.86200
C         76.91918      106.85654       15.98280
O         75.90360      107.27064       15.44406
H         76.63324      104.28524       14.19194
H         78.27963      105.42197       15.29194
H         77.54613      104.96191       16.85156
N         77.74113      107.69758       16.66743
C         77.60898      109.14815       16.67356
C         77.96194      109.66085       15.28887
O         79.00623      109.28409       14.77207
C         78.57754      109.74918       17.71546
C         78.49154      111.25060       17.76939
O         79.47996      111.92970       17.54162
O         77.32650      111.85323       18.07554
H         78.54662      107.28064       17.16055
H         76.57861      109.44370       16.97609
H         79.62175      109.44313       17.48286
H         78.31739      109.35226       18.72113
N         77.16361      110.55076       14.63866
C         77.49328      111.05593       13.31530
C         77.17103      110.07527       12.20257
O         77.43630      110.40945       11.05671
H         76.33262      110.92882       15.11788
H         78.56283      111.36166       13.28797
H         76.88505      111.96364       13.11404
N         76.53177      108.89202       12.44351
C         76.05910      107.99714       11.39050
C         76.61571      106.58962       11.56035
O         77.37144      106.33626       12.48872
C         74.49995      107.98774       11.39716
C         73.89044      107.34017       12.64794
O         74.01220      109.30055       11.29088
H         76.29411      108.64139       13.40919
H         76.37649      108.36723       10.39130
H         74.12008      107.39463       10.53563
H         74.12724      109.57668       10.34452
H         72.78517      107.33504       12.55488
H         74.22395      106.28608       12.75475
H         74.15636      107.90079       13.56513
N         76.21436      105.60236       10.71103
C         76.55514      104.19614       10.89008
C         77.95747      103.93220       10.37935
O         78.74603      103.32141       11.08638
C         75.51945      103.26203       10.18412
C         74.07119      103.58614       10.66084
C         75.86515      101.78631       10.49175
C         72.98929      102.73094        9.99733
H         75.56881      105.85102        9.94877
H         76.47892      103.93501       11.96671
H         75.57386      103.42229        9.08437
H         73.82073      104.63753       10.41449
H         73.99399      103.47054       11.76407
H         75.79176      101.59269       11.58491
H         75.18988      101.08859        9.95993
H         76.89211      101.53423       10.15811
H         73.07995      101.66487       10.28622
H         71.98935      103.07849       10.33308
H         73.04531      102.82500        8.89220
N         78.33020      104.38268        9.14739
C         79.62809      104.11014        8.53440
C         79.41573      103.66009        7.08594
O         78.28678      103.65996        6.61379
C         80.51414      105.38446        8.62800
C         80.76367      105.78297       10.08643
O         81.77169      105.16948        8.03931
H         77.66965      104.98220        8.62881
H         80.14727      103.28884        9.07676
H         79.98872      106.23403        8.12867
H         81.79666      105.67978        7.18802
H         81.27430      104.95552       10.62688
H         81.41607      106.68058       10.12532
H         79.81478      106.02395       10.60734
N         80.47260      103.27244        6.31627
C         80.36245      102.90951        4.90450
C         80.85433      101.49471        4.63723
O         80.85748      101.09433        3.48003
C         81.15800      103.92920        4.04509
C         82.67020      103.91313        4.31342
O         80.67471      105.22711        4.27683
H         81.40783      103.24686        6.74129
H         79.30380      102.95755        4.56699
H         81.02936      103.67553        2.96587
H         79.83047      105.31721        3.76221
H         83.09739      102.90900        4.10757
H         83.17378      104.64311        3.64568
H         82.90199      104.19486        5.36007
N         81.28833      100.67876        5.64045
C         81.86497       99.36243        5.39743
C         82.03748       98.65288        6.72662
O         82.66636       99.20651        7.62044
C         83.23360       99.50518        4.68257
C         83.84076       98.16624        4.21201
C         83.02603       97.44050        3.11555
C         82.80676       98.24786        1.81685
N         84.06185       98.56562        1.13240
H         81.20517      100.99853        6.61606
H         81.15838       98.78961        4.76102
H         83.94476      100.00113        5.37918
H         83.15568      100.17178        3.80273
H         83.95456       97.48628        5.08349
H         84.86186       98.36319        3.82480
H         82.03321       97.15804        3.52101
H         83.54861       96.49423        2.85732
H         82.24394       99.18152        2.02466
H         82.17504       97.63986        1.13237
H         84.67213       99.16822        1.72791
H         84.56485       97.68428        0.87943
H         83.84557       99.09147        0.25464
N         81.49516       97.42419        6.93489
C         81.53799       96.77061        8.23459
C         80.63197       97.50037        9.22575
O         81.15327       97.93281       10.24366
C         81.23268       95.26285        8.11868
C         82.37192       94.54409        7.37272
C         82.11387       93.07173        7.25771
O         81.14773       92.66333        6.63376
O         82.96064       92.19222        7.82661
H         81.03519       96.94317        6.14610
H         82.57765       96.81982        8.63499
H         80.27602       95.08186        7.59573
H         81.16782       94.82707        9.14036
H         83.32098       94.69769        7.93375
H         82.49968       94.96468        6.35261
N         79.29595       97.72805        9.04178
C         78.52535       97.33265        7.88226
H         77.47781       97.68555        7.99533
H         78.93523       97.79580        6.96259
H         78.48438       96.23336        7.78948
H         78.78994       98.24813        9.77626
Ca        70.89211      100.98936       18.32457
O         72.66699       99.75530       15.16322
H         73.43136      100.25286       15.54721
H         72.65330      100.02413       14.21054
O         72.52254       98.16525       18.17354
H         73.27059       98.11096       17.52711
H         72.96006       98.14326       19.06153
O         70.96358      102.29833       15.63735
H         71.66117      102.50232       14.96539
H         70.30827      103.03469       15.54808

Ca 1.0



