%chk=apoCaM-CA-Ng.loop3.water3.frame926.chk
%nprocshared=20
%mem=10GB
%nosave
#b3lyp/svp scf=(tight,noincore,xqc) Test 
#IOP(5/87=12) Density=Current Pop=(MK,readradii) iop(6/33=2) iop(6/42=6)

apoCaM-CA-Ng.loop3.water3.frame926 

   0  1 
C        -22.47690       12.54563        3.59722
C        -23.76277       12.17282        4.26854
O        -24.69258       11.74565        3.59868
H        -21.66015       11.90986        4.00332
H        -22.53982       12.38177        2.50114
H        -22.24240       13.61073        3.79859
N        -23.86395       12.26966        5.62116
C        -25.03414       11.79991        6.35727
C        -26.24301       12.70269        6.10304
O        -26.08093       13.77641        5.54009
C        -24.68181       11.71882        7.87023
C        -25.25536       10.51445        8.57463
O        -24.48251        9.67919        9.01863
O        -26.57213       10.29306        8.72046
H        -23.03533       12.60599        6.13631
H        -25.22935       10.77274        5.99859
H        -24.88717       12.68073        8.38284
H        -23.58460       11.55774        7.96016
N        -27.48103       12.33873        6.53375
C        -28.66130       13.20126        6.48587
C        -29.07456       13.57503        7.90558
O        -29.34874       14.74337        8.14440
C        -29.81043       12.58592        5.64696
C        -30.32946       11.22026        6.12807
C        -31.40989       10.62392        5.19942
C        -32.73424       11.40939        5.11791
N        -33.41516       11.48685        6.41178
H        -27.57999       11.40975        6.95004
H        -28.42403       14.15868        5.96923
H        -29.44520       12.47259        4.60356
H        -30.64923       13.31477        5.63062
H        -30.71670       11.29499        7.16391
H        -29.48299       10.50388        6.12591
H        -31.64484        9.59623        5.55056
H        -30.99042       10.53470        4.17332
H        -33.39891       10.87774        4.39997
H        -32.56855       12.43120        4.71546
H        -34.34834       11.93982        6.27850
H        -33.56255       10.52714        6.80105
H        -32.86331       12.06527        7.08390
N        -29.05398       12.65546        8.91535
C        -29.34886       12.95771       10.31426
C        -28.12779       12.78013       11.22740
O        -28.27538       12.93538       12.43135
C        -30.55464       12.11203       10.77824
C        -30.36933       10.61470       10.76211
O        -31.39882        9.82934       11.12763
O        -29.31629       10.09821       10.42684
H        -28.78985       11.68959        8.69250
H        -29.65691       14.02105       10.42470
H        -31.41410       12.35602       10.11726
H        -30.82612       12.41148       11.81326
N        -26.87988       12.53322       10.72734
C        -25.67776       12.47500       11.55109
C        -25.56654       11.27617       12.47746
O        -24.64412       11.28525       13.28091
H        -26.75313       12.49614        9.71210
H        -25.63394       13.40587       12.15837
H        -24.77716       12.46686       10.90001
N        -26.43339       10.21973       12.44648
C        -26.39652        9.13472       13.42669
C        -26.20631        7.76400       12.78878
O        -27.03343        7.35476       11.98829
C        -27.72408        9.14695       14.21199
C        -27.77611        8.07458       15.27475
N        -26.89690        8.07242       16.30372
O        -28.62537        7.19877       15.20376
H        -27.18054       10.20354       11.74077
H        -25.57543        9.30009       14.15673
H        -28.56538        8.99833       13.49747
H        -27.86189       10.13657       14.69782
H        -26.17912        8.80627       16.38816
H        -26.93764        7.33588       17.02367
N        -25.18999        6.95139       13.20169
C        -25.10249        5.54060       12.85256
C        -24.89763        5.29281       11.38147
O        -23.86980        5.70444       10.86169
H        -24.50389        7.31220       13.88253
H        -26.02407        5.03319       13.20803
H        -24.24460        5.08421       13.39438
N        -25.80998        4.56187       10.66348
C        -25.63212        4.21669        9.25139
C        -25.84794        5.45435        8.32878
O        -25.22842        6.55734        8.88887
C        -26.58628        3.08422        8.79448
C        -26.35219        1.74890        9.47450
C        -26.88026        1.46737       10.74854
C        -25.63042        0.74317        8.80456
C        -26.68626        0.21252       11.33628
C        -25.43201       -0.50723        9.39741
C        -25.96081       -0.77909       10.66188
O        -25.77346       -1.99559       11.21296
H        -26.62949        4.19723       11.16373
H        -24.59235        3.83604        9.12803
H        -26.40582        2.93389        7.70800
H        -27.65386        3.37331        8.89124
H        -27.46484        2.19871       11.28584
H        -25.21648        0.92578        7.82070
H        -27.10847        0.00912       12.31258
H        -24.87218       -1.26864        8.86869
H        -26.13552       -2.23048       12.07932
N        -25.36747        5.18481        6.94396
C        -25.05969        6.29981        6.00233
C        -26.30546        7.10693        5.65086
O        -26.87941        7.72051        6.53347
C        -23.88010        7.23279        6.47124
C        -23.48611        8.31104        5.42654
C        -22.63865        6.43324        6.91416
C        -22.88330        7.78939        4.12374
H        -24.55328        4.52864        6.95592
H        -24.70885        5.80968        5.06993
H        -24.20971        7.82684        7.33727
H        -22.74402        8.99828        5.89261
H        -24.37698        8.91329        5.17014
H        -22.25537        5.79677        6.09037
H        -21.83367        7.12340        7.24565
H        -22.87153        5.77941        7.77939
H        -23.60160        7.14398        3.58178
H        -22.63722        8.65596        3.47364
H        -21.94401        7.23187        4.31438
N        -26.74263        7.20729        4.35619
C        -27.82292        8.11356        3.96835
C        -28.62597        7.57224        2.79187
O        -28.06901        7.35489        1.72634
C        -27.22942        9.48252        3.61742
O        -28.25250       10.37737        3.27900
H        -26.19641        6.74931        3.61184
H        -28.50712        8.27442        4.83111
H        -26.51678        9.38272        2.76888
H        -26.69306        9.86332        4.51113
H        -27.81283       11.25578        3.13843
N        -29.96888        7.37548        2.92839
C        -30.86535        6.92599        1.86560
C        -31.96872        7.97506        1.68877
O        -32.54689        8.36149        2.69297
C        -31.45545        5.57622        2.27889
H        -30.39352        7.55975        3.84956
H        -30.31467        6.75672        0.91839
H        -32.02183        5.66324        3.22951
H        -32.12893        5.18101        1.49428
H        -30.63352        4.84100        2.41745
N        -32.33514        8.52082        0.48451
C        -31.86384        8.07103       -0.82091
C        -32.39520        6.66767       -1.10091
O        -33.30574        6.24277       -0.40043
C        -32.37403        9.03127       -1.91329
H        -33.03763        9.27850        0.50918
H        -30.75349        8.09398       -0.81649
H        -31.99547       10.05691       -1.71800
H        -32.04609        8.73854       -2.92964
H        -33.48535        9.05919       -1.91498
N        -31.90731        5.84841       -2.07339
C        -30.80960        6.15806       -2.97691
C        -29.62346        5.29879       -2.59437
O        -28.57937        5.85430       -2.27821
C        -31.28643        5.95902       -4.43020
C        -30.24172        6.40063       -5.46367
C        -30.79177        6.29321       -6.85847
O        -30.90629        7.39573       -7.62421
O        -31.13713        5.21084       -7.30516
H        -32.32651        4.90801       -2.15043
H        -30.48994        7.21143       -2.87470
H        -32.19518        6.58489       -4.57786
H        -31.56957        4.89668       -4.60129
H        -29.32686        5.77652       -5.38120
H        -29.96827        7.46096       -5.27064
N        -29.72614        3.94112       -2.53689
C        -28.65510        3.08243       -2.07199
H        -27.74391        3.65205       -1.79124
H        -29.00032        2.52825       -1.17295
H        -28.38909        2.35475       -2.86474
H        -30.61400        3.48669       -2.79688
Ca       -26.83987        8.12847        9.17751
O        -29.62287        6.85216       10.96753
H        -29.99394        7.60482       11.49084
H        -30.13408        6.06206       11.27365
O        -29.04224        5.60977        8.30504
H        -29.89603        5.29156        8.69215
H        -28.95355        5.11055        7.45493
O        -30.09193        8.37432        7.83781
H        -30.93917        8.86307        7.99131
H        -30.24039        7.87884        6.99332

Ca 1.0



