%chk=apoCaM-CA-Ng.loop2.water3.frame676.chk
%nprocshared=20
%mem=10GB
%nosave
#b3lyp/svp scf=(tight,noincore,xqc) Test 
#IOP(5/87=12) Density=Current Pop=(MK,readradii) iop(6/33=2) iop(6/42=6)

apoCaM-CA-Ng.loop2.water3.frame676 

   -2  1 
C        -11.01542       52.35986       70.28259
C        -12.22375       51.84208       69.55619
O        -12.15655       51.62875       68.35434
H        -10.15878       52.49125       69.58741
H        -11.25007       53.34123       70.74668
H        -10.72146       51.64390       71.07894
N        -13.38209       51.62519       70.23831
C        -14.60480       51.12991       69.61107
C        -14.38089       49.73220       69.06251
O        -14.00089       48.85460       69.82440
C        -15.75407       51.12992       70.64199
C        -17.07717       50.74303       70.03563
O        -17.24232       49.63146       69.55868
O        -18.09686       51.62249       70.03427
H        -13.39136       51.84010       71.24835
H        -14.89269       51.82936       68.79435
H        -15.85034       52.15889       71.05331
H        -15.51867       50.44409       71.48516
N        -14.61622       49.44626       67.74828
C        -14.37013       48.11769       67.18479
C        -12.87837       47.83295       67.19241
O        -12.12167       48.78421       67.34070
C        -14.87663       48.07180       65.73669
H        -14.98267       50.19449       67.13918
H        -14.93063       47.37663       67.79042
H        -14.33544       48.82096       65.11692
H        -14.73010       47.07494       65.28061
H        -15.96080       48.30808       65.70731
N        -12.31519       46.60429       67.00893
C        -12.96718       45.28864       66.90315
C        -13.72185       44.87127       68.17375
O        -13.71877       45.59680       69.15740
C        -11.85353       44.22516       66.61604
C        -10.75944       44.19813       67.67528
O         -9.80622       43.44520       67.56018
O        -10.82594       45.05331       68.71794
H        -11.28483       46.62425       66.94777
H        -13.67669       45.28469       66.05253
H        -11.37905       44.47329       65.64222
H        -12.28878       43.21009       66.51156
N        -14.32246       43.64280       68.23247
C        -14.84456       43.05797       69.45946
C        -16.14806       43.64551       69.95008
O        -16.73569       44.46984       69.26508
H        -14.29905       43.03360       67.40191
H        -14.06917       43.13087       70.24175
H        -15.03968       41.97772       69.28103
N        -16.70264       43.23664       71.13380
C        -16.00474       42.37557       72.09386
C        -15.05331       43.21844       72.94045
O        -15.06604       44.43665       72.82226
C        -17.01079       41.64100       73.01782
C        -17.93127       40.67673       72.30293
N        -18.82187       39.94799       73.01697
O        -17.87180       40.53471       71.09019
H        -17.61214       43.63932       71.41167
H        -15.42182       41.59578       71.55865
H        -17.62625       42.38622       73.56766
H        -16.44814       41.04113       73.76442
H        -18.88075       40.04615       74.04160
H        -19.44938       39.27705       72.54881
N        -14.20918       42.62760       73.83665
C        -13.35706       43.37486       74.75569
C        -11.87457       43.06173       74.62983
O        -11.12276       43.53590       75.46949
H        -14.20076       41.59873       73.90997
H        -13.67338       43.09682       75.78456
H        -13.49358       44.47197       74.65153
N        -11.37292       42.26810       73.64038
C         -9.96729       41.85984       73.57444
C         -9.01091       43.03815       73.41736
O         -9.08339       43.74454       72.42527
C         -9.75482       40.86223       72.40589
C         -8.29981       40.38914       72.30033
O        -10.56808       39.73164       72.59973
H        -12.02371       41.89871       72.93292
H         -9.72761       41.31935       74.51710
H        -10.00604       41.36365       71.43891
H        -11.37338       39.83973       72.02962
H         -7.98444       39.89378       73.24279
H         -8.19980       39.66926       71.46147
H         -7.61558       41.23906       72.09616
N         -8.04094       43.26063       74.35037
C         -6.98031       44.25703       74.19847
C         -5.99414       43.79881       73.12684
O         -5.41444       42.73226       73.27775
C         -6.23841       44.47927       75.56015
C         -5.00603       45.41285       75.38224
C         -7.22817       45.05497       76.59581
C         -4.25357       45.73448       76.67512
H         -8.03730       42.66815       75.19433
H         -7.42601       45.23585       73.91739
H         -5.86773       43.50024       75.93772
H         -5.31684       46.36119       74.91190
H         -4.27631       44.92442       74.70249
H         -7.58438       46.05747       76.27986
H         -8.10880       44.39389       76.72507
H         -6.75817       45.14068       77.59563
H         -4.88380       46.32361       77.37176
H         -3.91565       44.80055       77.17025
H         -3.36419       46.35587       76.44001
N         -5.70581       44.59767       72.05657
C         -4.67381       44.29595       71.06474
C         -3.53305       45.31395       71.11533
O         -2.60313       45.17104       70.33238
C         -5.27069       44.26733       69.64405
C         -6.32325       43.20744       69.48087
O         -7.46639       43.26940       70.18556
O         -6.15718       42.29602       68.68608
H         -6.20660       45.48894       71.96040
H         -4.21634       43.30139       71.26431
H         -4.45028       44.05460       68.92144
H         -5.70411       45.25848       69.38964
N         -3.49713       46.32850       72.03102
C         -2.38059       47.25690       72.16296
C         -2.90593       48.68793       72.18523
O         -2.69259       49.38059       73.17144
C         -1.60068       46.82143       73.42845
C         -0.38177       47.63278       73.80764
C         -0.20820       48.02867       75.14767
C          0.61419       47.95397       72.86791
C          0.93929       48.72309       75.53976
C          1.75262       48.66652       73.26245
C          1.91772       49.04495       74.59752
H         -4.24832       46.41627       72.72803
H         -1.68064       47.16751       71.30593
H         -1.24538       45.78604       73.23407
H         -2.29839       46.76937       74.29208
H         -0.94740       47.77653       75.89838
H          0.51548       47.65908       71.83237
H          1.07295       49.00450       76.57672
H          2.51324       48.91756       72.53469
H          2.80613       49.58242       74.90374
N         -3.61365       49.21671       71.13165
C         -4.14395       50.57591       71.09592
C         -5.06300       50.93877       72.24835
O         -5.36408       52.11380       72.40527
C         -4.97055       50.60557       69.80351
C         -4.20054       49.66023       68.91555
C         -3.86182       48.52632       69.88204
H         -3.26745       51.26190       71.06992
H         -5.95592       50.11296       69.98736
H         -5.15914       51.62005       69.39194
H         -4.72709       49.33712       67.99228
H         -3.25693       50.17865       68.63027
H         -4.71345       47.82648       70.02679
H         -2.97091       47.99343       69.48770
N         -5.59644       49.98097       73.05828
C         -6.45232       50.29198       74.18828
C         -5.60327       50.98352       75.23864
O         -5.91321       52.10696       75.60941
C         -7.08342       49.01945       74.79957
C         -8.28176       48.37483       74.05755
C         -8.11626       47.69202       72.71913
O         -9.15727       46.95863       72.27602
O         -7.09001       47.73906       72.06896
H         -5.36786       48.99810       72.88253
H         -7.28792       50.95802       73.87566
H         -7.51388       49.32364       75.78024
H         -6.30447       48.26961       75.01601
H         -9.09611       49.12367       73.95886
H         -8.64728       47.57895       74.74057
N         -4.50209       50.35975       75.74996
C         -3.63142       50.94946       76.74588
H         -2.60472       51.03357       76.33108
H         -3.96854       51.95933       77.05961
H         -3.60199       50.29372       77.64115
H         -4.25531       49.41696       75.41292
Ca        -9.45358       45.69832       70.40364
O        -11.71466       44.12405       71.32956
H        -12.63007       44.46568       71.48066
H        -11.81509       43.38390       70.67938
O         -8.75325       48.22038       68.81261
H         -9.70745       48.33594       68.57592
H         -8.26951       48.33937       67.95719
O        -11.50276       47.84421       70.75143
H        -11.97088       47.07646       70.33896
H        -11.97248       47.98565       71.61097

Ca 1.0



