%chk=apoCaM-CA-Ng.loop1.water4.frame1195.chk
%nprocshared=20
%mem=10GB
%nosave
#b3lyp/svp scf=(tight,noincore,xqc) Test 
#IOP(5/87=12) Density=Current Pop=(MK,readradii) iop(6/33=2) iop(6/42=6)

apoCaM-CA-Ng.loop1.water4.frame1195 

   0  1 
C        122.87863       -7.59323      101.30824
C        123.38860       -6.51190      102.20870
O        122.58532       -5.76997      102.75860
H        121.77045       -7.55238      101.23517
H        123.30521       -7.45946      100.29142
H        123.18037       -8.58156      101.70996
N        124.73235       -6.34643      102.38328
C        125.29687       -5.27611      103.20100
C        125.51592       -4.01052      102.37883
O        126.56818       -3.39392      102.49089
C        126.58591       -5.73700      103.93639
C        127.75570       -6.01689      103.01578
O        127.70780       -6.91422      102.19056
O        128.87747       -5.27756      103.11551
H        125.35883       -6.98932      101.88274
H        124.55708       -5.01977      103.99238
H        126.37387       -6.64360      104.54130
H        126.89075       -4.92887      104.63780
N        124.55602       -3.55203      101.52404
C        124.71121       -2.31177      100.78056
C        124.69321       -1.16314      101.77668
O        125.68262       -0.44698      101.82896
C        123.67764       -2.15088       99.62601
C        123.59726       -3.37359       98.68211
C        124.90135       -3.67989       97.92681
C        124.83366       -4.99937       97.13459
N        123.76470       -5.01518       96.13521
H        123.69854       -4.09538      101.39370
H        125.70165       -2.32873      100.27545
H        123.93734       -1.24456       99.03649
H        122.65463       -1.98492       99.99988
H        122.79625       -3.17146       97.94005
H        123.29074       -4.26953       99.25903
H        125.73863       -3.80247       98.64295
H        125.14006       -2.83250       97.24802
H        124.68842       -5.84775       97.84077
H        125.81136       -5.14695       96.62440
H        123.82993       -5.90418       95.58842
H        122.82822       -4.99462       96.59827
H        123.86446       -4.20510       95.48239
N        123.67557       -0.93483      102.66729
C        122.40427       -1.65960      102.75636
C        122.27205       -2.43224      104.06409
O        123.20465       -2.45979      104.85586
C        121.25402       -0.64869      102.54559
C        121.19252        0.33914      103.67311
O        120.95145       -0.10314      104.92052
O        121.39263        1.52207      103.47003
H        123.81452       -0.16477      103.34129
H        122.30881       -2.42526      101.97946
H        120.27344       -1.16260      102.47645
H        121.41643       -0.12598      101.57618
N        121.11115       -3.09829      104.33683
C        120.87202       -3.91567      105.51631
C        120.97381       -3.17669      106.83467
O        121.31100       -2.00455      106.86943
H        120.34547       -3.05816      103.64852
H        121.59947       -4.75464      105.52952
H        119.85285       -4.34705      105.43764
N        120.70109       -3.85066      107.98829
C        120.94458       -3.30602      109.32347
C        120.35857       -4.24808      110.37696
O        120.66569       -5.43076      110.32774
C        122.47416       -3.15442      109.52800
C        122.85820       -2.62365      110.88560
O        123.46351       -1.56817      110.98252
O        122.58278       -3.33061      111.99857
H        120.34517       -4.81515      107.90205
H        120.47697       -2.30675      109.40247
H        122.87452       -2.46135      108.75976
H        122.97112       -4.13766      109.38428
N        119.55874       -3.82693      111.40433
C        119.23112       -2.43959      111.68465
C        118.25689       -1.82797      110.70929
O        117.72975       -2.51004      109.84158
H        119.24979       -4.52883      112.09512
H        120.17081       -1.84774      111.71611
H        118.76373       -2.36660      112.69085
N        117.98840       -0.49715      110.81571
C        117.06000        0.23345      109.95796
C        117.39462        0.04948      108.48659
O        118.56371       -0.02192      108.13904
C        117.05249        1.73506      110.35123
C        116.05816        2.56396      109.53327
O        118.33648        2.28637      110.19732
H        118.48618        0.02480      111.55434
H        116.03741       -0.16728      110.13509
H        116.72487        1.81147      111.41649
H        118.73837        2.37899      111.10028
H        116.07319        3.61773      109.88428
H        116.32411        2.55930      108.45525
H        115.02979        2.16386      109.65304
N        116.37860       -0.02726      107.57463
C        116.52212       -0.21160      106.13216
C        117.29546        0.93615      105.51144
O        118.47523        1.07571      105.78487
C        117.13872       -1.59969      105.77922
C        116.26807       -2.72081      106.40681
C        117.24008       -1.76488      104.24683
C        116.79896       -4.13494      106.17739
H        115.41200        0.05609      107.92569
H        115.49559       -0.19958      105.70032
H        118.16678       -1.66598      106.19798
H        115.23153       -2.65993      106.00896
H        116.22371       -2.57175      107.50640
H        116.23226       -1.71917      103.78105
H        117.87196       -0.96828      103.80218
H        117.72300       -2.72365      103.97434
H        117.82238       -4.23103      106.59208
H        116.13910       -4.86051      106.69767
H        116.79894       -4.40003      105.10099
N        116.69229        1.78303      104.63011
C        117.41259        2.86179      103.96499
C        116.88940        4.23112      104.34723
O        117.43758        5.19020      103.82191
C        117.43433        2.64476      102.43093
C        116.05913        2.75242      101.76991
O        117.97763        1.38444      102.13699
H        115.69408        1.65160      104.41154
H        118.47985        2.86554      104.28009
H        118.07035        3.43413      101.96313
H        118.95165        1.44501      102.31392
H        116.16985        2.60933      100.67362
H        115.36705        1.97631      102.15357
H        115.62015        3.75732      101.94337
N        115.89052        4.43062      105.26758
C        115.51499        5.77625      105.70606
C        116.74185        6.42451      106.32734
O        117.11825        6.06084      107.43323
C        114.30737        5.78222      106.68616
C        112.99695        5.36818      105.99436
O        114.56007        4.98928      107.82418
H        115.42231        3.61803      105.69179
H        115.21631        6.35955      104.80690
H        114.14432        6.82468      107.03748
H        114.29531        4.05224      107.62819
H        112.15806        5.40950      106.72221
H        112.77015        6.06979      105.16362
H        113.06301        4.33850      105.58511
N        117.49797        7.28163      105.57406
C        118.81959        7.79725      105.93489
C        119.81802        6.67501      106.17884
O        119.43186        5.52350      106.29730
C        118.71947        8.76090      107.12455
C        117.89230       10.01126      106.74453
C        116.83267       10.37327      107.78651
C        117.40209       10.71399      109.16619
N        116.31408       11.02504      110.09260
H        117.15524        7.53451      104.63484
H        119.20578        8.36290      105.05673
H        119.72175        9.09583      107.47347
H        118.25699        8.20109      107.96207
H        117.31645        9.82947      105.81117
H        118.57575       10.86154      106.52437
H        116.13284        9.51268      107.87883
H        116.25798       11.24554      107.40576
H        118.08496       11.58728      109.08237
H        117.97947        9.85356      109.56791
H        115.67193       10.20285      110.17881
H        116.71280       11.24205      111.03349
H        115.77551       11.85324      109.74875
N        121.15344        6.94368      106.16827
C        122.18009        5.91628      106.33537
C        121.94106        4.71939      105.41701
O        121.85880        3.62573      105.95192
C        123.59606        6.49398      106.13168
C        123.99031        7.49434      107.22706
C        125.33888        8.08627      106.93450
O        126.36192        7.89923      107.78915
O        125.51101        8.74902      105.92318
H        121.44408        7.91419      105.97915
H        122.13149        5.52922      107.38016
H        123.65896        6.99112      105.14722
H        124.33655        5.66286      106.15371
H        124.01572        6.96602      108.20548
H        123.25738        8.32388      107.29633
N        121.76972        4.78258      104.06503
C        121.78521        5.98211      103.26339
H        122.78591        6.44601      103.27337
H        121.55923        5.71547      102.20878
H        121.00701        6.69161      103.60491
H        121.57950        3.90538      103.56393
Ca       121.12664        1.11471      106.80583
O        122.50252        2.92786      108.95161
H        122.14003        3.28025      109.80299
H        123.44744        3.22147      108.94031
O        120.87200        0.63406      109.92894
H        121.03453        1.04838      110.81288
H        121.43947       -0.17506      109.92715
O        123.77423       -0.02110      107.78931
H        123.51627       -0.64439      107.06541
H        124.49506        0.52779      107.39157
O        119.13116        3.12251      107.66035
H        119.95709        3.45993      108.08831
H        118.42347        3.74108      107.96820

Ca 1.0



