%chk=apoCaM-CA-Ng.loop3.water6.frame1161.chk
%nprocshared=20
%mem=10GB
%nosave
#b3lyp/svp scf=(tight,noincore,xqc) Test 
#IOP(5/87=12) Density=Current Pop=(MK,readradii) iop(6/33=2) iop(6/42=6)

apoCaM-CA-Ng.loop3.water6.frame1161 

   0  1 
C         82.32840       33.59264       65.62261
C         82.94573       32.75208       64.54678
O         83.21578       33.27161       63.47271
H         81.33786       33.17610       65.89959
H         82.98897       33.59858       66.51455
H         82.19173       34.63908       65.27282
N         83.20213       31.43096       64.77321
C         83.80521       30.55731       63.77234
C         82.85900       29.43157       63.39116
O         83.24806       28.27205       63.41067
C         85.19687       30.07001       64.24044
C         85.21451       29.22620       65.49389
O         84.08165       28.89791       66.14553
O         86.28301       28.82086       65.92164
H         82.95672       31.03896       65.69390
H         83.98196       31.12583       62.83592
H         85.83431       30.96393       64.41493
H         85.65742       29.47847       63.41985
N         81.59416       29.72836       62.97514
C         80.64157       28.75419       62.44993
C         81.20720       28.14961       61.17535
O         81.29636       26.93421       61.05807
C         80.26232       27.66746       63.48842
C         79.67632       28.23267       64.78860
C         79.33600       27.08353       65.75054
C         78.76052       27.59765       67.07514
N         78.45756       26.48380       67.97510
H         81.29759       30.71636       62.97875
H         79.71346       29.30113       62.17023
H         81.15346       27.05488       63.73965
H         79.50887       26.99043       63.02729
H         78.75794       28.81651       64.56067
H         80.42002       28.90358       65.27125
H         80.25945       26.50081       65.96411
H         78.59378       26.40814       65.27032
H         77.83007       28.17478       66.87801
H         79.49816       28.27228       67.56381
H         78.06833       26.85947       68.86970
H         77.74979       25.84923       67.53837
H         79.32861       25.94426       68.18667
N         81.66300       28.97485       60.18978
C         82.30603       28.49353       58.97219
C         83.79036       28.82618       59.00206
O         84.25758       29.43695       59.95435
C         81.58716       29.02373       57.71073
C         81.66225       30.51798       57.53092
O         81.06829       31.34849       58.40798
O         82.22908       30.98468       56.55592
H         81.61298       29.99047       60.34830
H         82.24515       27.38396       58.92765
H         80.51900       28.71814       57.73829
H         82.04060       28.53805       56.81990
N         84.61166       28.38338       58.01043
C         86.05818       28.52545       58.05273
C         86.60012       27.72712       59.22256
O         86.19117       26.58023       59.34138
H         84.20678       27.86846       57.21441
H         86.33104       29.59639       58.05633
H         86.47289       28.07282       57.12605
N         87.50643       28.17900       60.13888
C         88.25036       29.43451       60.12213
C         87.99250       30.18608       61.42209
O         88.21677       29.59942       62.47217
C         89.75031       29.05551       60.00631
C         90.73695       30.19956       59.97440
N         92.05956       29.93255       59.87883
O         90.36381       31.35945       60.03641
H         87.75250       27.52266       60.89856
H         87.99982       30.05543       59.24709
H         89.88813       28.46938       59.07145
H         90.02575       28.39949       60.86218
H         92.39599       28.95953       59.82933
H         92.74936       30.69807       59.85676
N         87.57357       31.48460       61.48512
C         87.30425       32.34105       60.33748
C         87.14209       33.77210       60.80028
O         88.07031       34.28053       61.41414
H         87.48188       31.89651       62.42845
H         86.41343       31.96842       59.78877
H         88.16740       32.33906       59.64464
N         85.99637       34.47861       60.57639
C         85.80067       35.83379       61.08760
C         84.31872       36.25366       60.90799
O         84.01361       36.44222       59.55645
C         86.77640       36.83720       60.40599
C         86.68995       38.22973       60.98483
C         86.29589       39.31331       60.18200
C         87.00763       38.45763       62.33515
C         86.21225       40.59982       60.72343
C         86.92366       39.74447       62.87402
C         86.52368       40.82062       62.06903
O         86.43563       42.06700       62.57565
H         85.22246       34.01509       60.08013
H         85.99854       35.79382       62.18108
H         86.56257       36.85276       59.31477
H         87.82840       36.50962       60.52118
H         86.04866       39.16396       59.13847
H         87.31934       37.63907       62.97139
H         85.90408       41.42627       60.09560
H         87.16881       39.90284       63.91667
H         86.64077       42.26229       63.50118
N         83.96947       37.43956       61.70941
C         82.51445       37.71805       61.69034
C         82.14782       38.54004       60.45897
O         83.02867       39.13425       59.85005
C         82.09153       38.44075       63.01816
C         82.82745       39.79982       63.17517
C         80.56554       38.59856       63.14314
C         82.59447       40.47570       64.52704
H         84.24744       37.19731       62.68882
H         81.97340       36.74342       61.64723
H         82.40058       37.77631       63.85625
H         82.52104       40.49878       62.36704
H         83.92127       39.63146       63.08706
H         80.17046       39.32264       62.40335
H         80.06987       37.61439       63.00874
H         80.28472       38.96201       64.15179
H         83.19485       41.40854       64.57850
H         81.53024       40.75433       64.66369
H         82.91271       39.80398       65.35233
N         80.85787       38.59432       60.02036
C         80.43811       39.40651       58.87828
C         79.02375       39.06825       58.41629
O         78.36352       38.23629       59.02131
C         80.54871       40.90612       59.23207
O         79.73245       41.22294       60.32900
H         80.16617       38.01025       60.50997
H         81.10367       39.17764       58.01825
H         80.29727       41.55288       58.36193
H         81.59380       41.16770       59.49465
H         78.82192       41.39375       59.97226
N         78.50801       39.67133       57.30615
C         77.19367       39.38508       56.74170
C         76.07680       39.73909       57.71070
O         75.27141       38.88374       58.05245
C         77.12144       37.92980       56.24854
H         79.08723       40.36383       56.80728
H         77.05627       40.02835       55.84417
H         77.93412       37.74182       55.51513
H         77.22116       37.20481       57.08191
H         76.14844       37.74786       55.74445
N         75.96499       41.01996       58.17303
C         74.89031       41.51475       59.03456
C         74.85704       40.90133       60.43196
O         73.98549       41.28855       61.19936
C         73.52917       41.35814       58.33510
H         76.66394       41.70984       57.85742
H         75.05123       42.60657       59.17810
H         73.55372       41.85778       57.34340
H         73.25782       40.29262       58.19107
H         72.72714       41.83443       58.93863
N         75.75335       39.96168       60.85308
C         75.70159       39.37195       62.18695
C         75.97325       40.43026       63.23676
O         75.11659       40.66262       64.07901
C         76.71197       38.21173       62.32497
C         76.35129       37.02964       61.40850
C         77.33394       35.90535       61.56189
O         78.51062       36.07342       61.28597
O         76.91744       34.69857       61.98992
H         76.49397       39.64763       60.21647
H         74.68698       38.94405       62.35832
H         76.69637       37.84424       63.37538
H         77.73686       38.57413       62.09434
H         76.33697       37.34119       60.34474
H         75.33507       36.66342       61.67138
N         77.14813       41.11750       63.24604
C         77.43562       42.13157       64.23682
H         76.68402       42.94739       64.17471
H         77.41436       41.68537       65.25400
H         78.44390       42.56126       64.05775
H         77.86088       40.91896       62.52842
Ca        82.25094       35.05200       59.16430
O         79.51312       35.08973       57.59219
H         79.10374       35.22952       56.70154
H         78.97272       34.36971       58.00468
O         82.19830       33.99541       55.65818
H         82.95526       34.21918       55.06022
H         81.41552       33.93367       55.05497
O         85.08680       34.12144       57.25499
H         85.82255       33.54927       57.58931
H         85.42555       35.04619       57.35784
O         79.99706       33.35856       61.03267
H         79.98818       32.57003       61.63137
H         80.59800       34.00473       61.48233
O         82.28197       37.10756       56.57538
H         82.86987       37.55270       57.23593
H         82.88985       36.85382       55.83639
O         83.23604       32.28902       60.16402
H         82.54392       32.26123       60.87012
H         84.06536       32.00807       60.62351

Ca 1.0



