%chk=apoCaM-CA-Ng.loop2.water3.frame522.chk
%nprocshared=20
%mem=10GB
%nosave
#b3lyp/svp scf=(tight,noincore,xqc) Test 
#IOP(5/87=12) Density=Current Pop=(MK,readradii) iop(6/33=2) iop(6/42=6)

apoCaM-CA-Ng.loop2.water3.frame522 

   -2  1 
C         70.70604       12.17651       44.32966
C         71.61415       11.73611       43.21670
O         71.42546       12.17762       42.09221
H         69.66401       11.87006       44.09513
H         70.99345       11.71430       45.29777
H         70.74438       13.27994       44.43705
N         72.60014       10.82459       43.44783
C         73.45241       10.30056       42.38622
C         74.41757       11.37706       41.90339
O         75.27847       11.78931       42.66430
C         74.19243        9.04559       42.90588
C         75.01328        8.31382       41.87847
O         75.09855        8.71186       40.72762
O         75.65229        7.18400       42.23702
H         72.69561       10.44116       44.40158
H         72.79048        9.96508       41.55627
H         73.42597        8.32974       43.27875
H         74.84721        9.32228       43.76055
N         74.32383       11.88781       40.64329
C         75.19295       12.95757       40.14913
C         74.97536       14.23390       40.94882
O         73.83052       14.50247       41.28554
C         74.86972       13.25872       38.68127
H         73.59251       11.51368       40.01883
H         76.24936       12.61706       40.20093
H         73.82364       13.62035       38.57648
H         75.55368       14.04117       38.28820
H         74.99740       12.34342       38.06682
N         75.96612       15.12600       41.25104
C         77.34403       15.05681       40.77105
C         78.24416       14.27880       41.71161
O         77.95296       14.18515       42.89428
C         77.88685       16.47685       40.46096
C         77.90726       17.45222       41.61774
O         77.55707       17.08315       42.86271
O         78.23297       18.61086       41.41556
H         75.66953       15.98475       41.73559
H         77.35550       14.53599       39.79122
H         77.23272       16.91408       39.67581
H         78.91675       16.40574       40.04856
N         79.33651       13.63001       41.21695
C         80.25069       12.84353       42.03079
C         80.08530       11.36335       41.75336
O         79.19474       10.99912       40.99801
H         79.51842       13.66370       40.20186
H         80.06598       12.99610       43.11571
H         81.28494       13.17883       41.80192
N         80.86876       10.41354       42.34156
C         82.01061       10.68193       43.20760
C         81.74980       10.19292       44.63130
O         82.67479       10.17431       45.43067
C         83.25944       10.08716       42.51392
C         84.57640       10.52560       43.11010
N         85.54860        9.62578       43.38644
O         84.79094       11.71587       43.28811
H         80.65878        9.42214       42.14017
H         82.19522       11.77050       43.29803
H         83.26363       10.48634       41.47592
H         83.18909        8.97937       42.44685
H         85.41227        8.62233       43.19845
H         86.46034        9.94068       43.75153
N         80.47969        9.89822       45.05059
C         80.11939        9.63198       46.43455
C         80.41347       10.83586       47.30178
O         81.12629       10.69412       48.28506
H         79.69768        9.92618       44.38169
H         80.65082        8.72905       46.80779
H         79.02635        9.43554       46.48820
N         79.93500       12.06989       46.95906
C         80.27254       13.29317       47.69183
C         79.02935       14.07451       48.10780
O         77.94295       13.76923       47.63837
C         81.24163       14.13953       46.83257
C         82.60078       13.42670       46.72604
O         80.68545       14.33431       45.55325
H         79.37565       12.15499       46.09525
H         80.78554       13.03688       48.64329
H         81.41393       15.12039       47.32416
H         81.38067       14.74387       44.97384
H         82.48818       12.44913       46.22956
H         83.31971       14.03078       46.13532
H         83.02890       13.26637       47.73861
N         79.12536       15.06295       49.05708
C         77.97558       15.77564       49.62094
C         78.07670       17.28760       49.37950
O         79.03687       17.91228       49.80537
C         77.83624       15.50502       51.15958
C         76.59615       16.25127       51.74859
C         77.74008       13.99509       51.45926
C         76.47170       16.14558       53.27140
H         80.05339       15.27326       49.45332
H         77.04914       15.39547       49.16377
H         78.75042       15.89392       51.65825
H         75.65858       15.87652       51.28279
H         76.67326       17.33515       51.52521
H         78.62092       13.45438       51.05896
H         77.73644       13.80972       52.55340
H         76.81561       13.55957       51.02239
H         77.39361       16.52832       53.75648
H         75.61843       16.75634       53.62537
H         76.27565       15.10575       53.59742
N         77.01811       17.93764       48.81737
C         76.79531       19.37391       48.76199
C         75.79581       19.76001       49.85906
O         76.08704       20.67324       50.61709
C         76.15890       19.76082       47.40561
C         76.96093       19.35490       46.20942
O         76.52051       18.51597       45.43863
O         78.13524       19.95530       45.94415
H         76.24024       17.37716       48.50482
H         77.74840       19.93042       48.90829
H         75.99259       20.85904       47.35972
H         75.16822       19.26755       47.32605
N         74.58816       19.11169       49.97967
C         73.54321       19.44630       50.95578
C         72.28532       18.56605       50.70604
O         71.86681       17.86027       51.61228
C         74.09013       19.20927       52.39512
C         73.23306       19.65235       53.56785
C         72.15544       20.55529       53.45488
C         73.55897       19.14726       54.84048
C         71.43198       20.93678       54.59250
C         72.82330       19.51811       55.96844
C         71.76237       20.41528       55.84579
H         74.39477       18.34415       49.32783
H         73.27981       20.51514       50.81239
H         75.07599       19.68843       52.55062
H         74.25299       18.11563       52.47196
H         71.87555       20.98550       52.50485
H         74.38154       18.45335       54.95909
H         70.61436       21.64065       54.50457
H         73.07969       19.11141       56.93864
H         71.19919       20.70792       56.72305
N         71.63541       18.53295       49.49689
C         70.49544       17.66936       49.16025
C         70.63562       16.19789       49.56315
O         69.71622       15.66844       50.17052
C         70.40377       17.80943       47.63497
C         70.77565       19.26276       47.45000
C         71.97740       19.38841       48.37669
H         69.58008       18.09363       49.63126
H         71.20506       17.20803       47.14549
H         69.42439       17.51357       47.20336
H         70.96911       19.58853       46.40653
H         69.94170       19.87447       47.86651
H         72.88990       19.00372       47.88232
H         72.09865       20.45465       48.66583
N         71.77813       15.50026       49.29400
C         72.03443       14.10572       49.69759
C         71.63962       13.89691       51.14892
O         70.89121       12.97336       51.43729
C         73.51473       13.61368       49.56308
C         74.22733       13.71917       48.19445
C         74.79089       15.08278       47.94650
O         75.64881       15.30716       46.93597
O         74.62812       15.95531       48.77256
H         72.48345       16.03705       48.80718
H         71.41400       13.43876       49.05984
H         73.49386       12.52953       49.81324
H         74.16715       14.08628       50.33284
H         73.58411       13.36683       47.36182
H         75.12289       13.05961       48.24187
N         72.06267       14.76522       52.10815
C         71.63925       14.66163       53.48688
H         70.52871       14.63945       53.54209
H         72.05441       13.74072       53.94458
H         71.99487       15.54615       54.05798
H         72.66289       15.55781       51.84054
Ca        77.06571       15.57808       45.20626
O         76.15387       12.97674       45.34833
H         76.87467       12.33331       45.13571
H         75.34239       12.62071       44.91231
O         74.59388       16.03622       44.05762
H         73.95880       16.70247       44.41796
H         74.02966       15.28995       43.73749
O         79.60281       16.92612       45.68945
H         79.17120       17.76244       45.97908
H         80.51295       16.98911       46.06878

Ca 1.0



