%chk=apoCaM-CA-Ng.loop4.water5.frame813.chk
%nprocshared=20
%mem=10GB
%nosave
#b3lyp/svp scf=(tight,noincore,xqc) Test 
#IOP(5/87=12) Density=Current Pop=(MK,readradii) iop(6/33=2) iop(6/42=6)

apoCaM-CA-Ng.loop4.water5.frame813 

   -3  1 
C         77.90375        5.69476       88.61011
C         77.63032        6.08006       90.03488
O         76.70889        5.55326       90.64017
H         78.93280        5.28387       88.52769
H         77.18154        4.93110       88.25377
H         77.82918        6.59039       87.96152
N         78.42650        7.00413       90.63637
C         78.30601        7.45478       92.01807
C         78.47090        6.29612       92.99601
O         77.69447        6.18207       93.93656
C         76.98341        8.22287       92.28514
C         76.69047        9.39907       91.35162
O         76.40242        8.96340       90.05333
O         77.77542       10.28035       91.28033
H         79.19868        7.40842       90.08244
H         79.15162        8.15589       92.19951
H         77.02569        8.62577       93.32068
H         76.11650        7.53035       92.23135
N         79.45513        5.37086       92.81966
C         79.64538        4.26079       93.75462
C         80.28541        4.78631       95.03655
O         81.05021        5.73618       94.93054
C         80.48546        3.10020       93.12623
C         81.94467        3.51706       92.78129
C         79.74092        2.53359       91.90069
C         82.79507        2.37809       92.21220
H         80.04586        5.44493       91.97974
H         78.64279        3.83625       93.96798
H         80.53685        2.28274       93.87828
H         82.44709        3.86178       93.70932
H         81.96239        4.34936       92.04884
H         79.67472        3.28242       91.08344
H         80.23771        1.62378       91.50884
H         78.71412        2.23072       92.19253
H         82.41101        2.04173       91.22745
H         83.83370        2.73802       92.05336
H         82.81907        1.51951       92.91560
N         80.12347        4.23707       96.27806
C         79.26336        3.12150       96.66184
C         78.40417        3.54971       97.84762
O         78.94788        4.08498       98.80573
C         80.15311        1.93025       97.07851
C         79.39010        0.67457       97.43933
O         78.17114        0.62525       97.38364
O         80.07240       -0.42190       97.81755
H         80.69114        4.65081       97.03579
H         78.63091        2.77096       95.82318
H         80.78580        2.22367       97.94393
H         80.82328        1.67418       96.23106
N         77.07246        3.26955       97.89794
C         76.27311        3.59650       99.07149
C         74.93567        2.89992       99.03267
O         74.63872        2.12934       99.93532
H         76.64285        2.75247       97.11550
H         76.14158        4.69864       99.13742
H         76.80320        3.25163       99.98743
N         74.08305        3.11158       97.99678
C         72.78834        2.45046       97.87166
C         72.90574        0.93479       97.90562
O         72.20727        0.31914       98.70054
C         72.02358        2.93117       96.61334
C         72.69601        2.65909       95.28691
O         73.90745        3.17454       95.00686
O         72.11560        2.01457       94.42875
H         74.37680        3.78220       97.27370
H         72.15684        2.75367       98.73846
H         71.87015        4.02730       96.69930
H         71.01805        2.45123       96.61678
N         73.77132        0.25764       97.09718
C         73.82920       -1.19599       97.09014
C         72.62260       -1.81655       96.40972
O         72.49580       -3.03132       96.45881
H         74.41863        0.77990       96.48908
H         73.92701       -1.56204       98.13637
H         74.72594       -1.53845       96.52983
N         71.73715       -1.05690       95.69098
C         70.58029       -1.56643       94.96181
C         70.94581       -2.50789       93.81369
O         70.03038       -3.00378       93.17304
C         69.53932       -2.15910       95.94723
C         69.01246       -1.08840       96.93441
C         68.17446        0.00043       96.28776
N         67.73622        1.04462       97.02745
O         67.87677       -0.05529       95.10321
H         71.88097       -0.04561       95.63590
H         70.09398       -0.71035       94.45205
H         70.00071       -2.98913       96.52090
H         68.67021       -2.58152       95.39780
H         69.87531       -0.62366       97.45693
H         68.37861       -1.57967       97.70302
H         67.97488        1.12058       98.02650
H         67.16550        1.78715       96.59512
N         72.24269       -2.74547       93.44522
C         72.62695       -3.59187       92.31329
C         73.40211       -2.81276       91.24563
O         73.73636       -3.40489       90.22684
C         73.46436       -4.80290       92.81295
C         74.79238       -4.38006       93.47111
C         72.64951       -5.66694       93.78573
H         73.00367       -2.29852       93.96715
H         71.71952       -3.99292       91.81066
H         73.71068       -5.43729       91.93255
H         74.62314       -3.78237       94.39057
H         75.37854       -5.27903       93.75462
H         75.40853       -3.78297       92.76625
H         72.38098       -5.09552       94.69893
H         71.71520       -6.01651       93.29758
H         73.23724       -6.55858       94.09044
N         73.73722       -1.50118       91.40832
C         74.51466       -0.71499       90.45903
C         73.69349        0.48299       90.02235
O         73.08680        1.12067       90.87513
C         75.79474       -0.21904       91.15353
C         76.60106        0.65901       90.22729
N         76.66395        1.99453       90.43648
O         77.16559        0.16779       89.26087
H         73.44840       -1.00748       92.26435
H         74.81934       -1.31417       89.57029
H         76.42185       -1.07302       91.49417
H         75.49960        0.35950       92.05546
H         76.15735        2.42800       91.22264
H         77.18958        2.60330       89.79291
N         73.66212        0.87429       88.71653
C         72.87019        2.01645       88.25678
C         72.98174        2.19279       86.74785
O         73.99142        1.78379       86.18514
C         73.34254        3.34776       88.91211
C         72.23569        4.36773       88.88763
C         72.26741        5.47749       88.03002
C         71.14212        4.19537       89.75337
C         71.20567        6.39067       88.02851
C         70.09428        5.11484       89.76300
C         70.11648        6.21147       88.89777
O         69.08719        7.08171       88.91083
H         74.20133        0.31434       88.03734
H         71.81872        1.77861       88.53157
H         74.26349        3.70347       88.39572
H         73.62996        3.24364       89.97674
H         73.09790        5.62368       87.35212
H         71.10886        3.34981       90.43057
H         71.22875        7.23498       87.35182
H         69.26343        4.97049       90.44262
H         69.05331        7.84921       88.32322
N         72.02745        2.86276       86.03403
C         72.19264        3.16297       84.61575
C         72.09582        4.66871       84.38594
O         70.98452        5.18094       84.40417
C         71.15139        2.43377       83.74485
C         71.23251        0.90935       83.88340
C         70.24329        0.24790       82.96675
O         68.92628        0.49955       83.09657
O         70.62752       -0.52003       82.09918
H         71.17179        3.18540       86.51173
H         73.16975        2.79180       84.27519
H         71.34011        2.70168       82.67999
H         70.12741        2.77129       84.01779
H         71.00714        0.61102       84.92926
H         72.26059        0.56765       83.62988
N         73.17883        5.48307       84.19663
C         74.56948        5.05750       84.34674
C         74.99716        4.08975       83.25819
O         74.27651        3.89910       82.28682
C         75.53230        6.27077       84.37642
C         75.20211        7.26447       85.50778
C         76.19627        8.38642       85.55608
O         76.36103        9.10696       84.58484
O         76.89369        8.61943       86.68273
H         72.98300        6.48258       84.03728
H         74.65112        4.54179       85.32941
H         75.49498        6.79964       83.39773
H         76.57021        5.90375       84.53416
H         75.20394        6.73449       86.48449
H         74.20060        7.71499       85.35711
N         76.15697        3.39177       83.39834
C         76.57311        2.38848       82.44445
H         77.52572        1.92427       82.77772
H         75.80045        1.59181       82.37832
H         76.72293        2.84703       81.44532
H         76.74553        3.54629       84.23097
Ca        77.99503       10.19469       89.02015
O         79.05136       12.92799       88.78436
H         79.66896       13.29154       88.10152
H         79.40519       13.25982       89.64712
O         75.98424       12.73200       90.82114
H         75.11678       12.85052       90.35930
H         75.76076       12.21175       91.63313
O         76.09328       13.32876       87.77725
H         75.16651       13.67715       87.78968
H         76.46073       13.62939       86.90874
O         78.28773       11.49370       86.13192
H         79.03803       11.21562       85.54921
H         77.47563       11.31904       85.59394
O         74.30261       10.63246       88.08296
H         73.75221       10.71724       87.26414
H         73.64983       10.67426       88.82644

Ca 1.0



