%chk=apoCaM-CA-Ng.loop3.water5.frame447.chk
%nprocshared=20
%mem=10GB
%nosave
#b3lyp/svp scf=(tight,noincore,xqc) Test 
#IOP(5/87=12) Density=Current Pop=(MK,readradii) iop(6/33=2) iop(6/42=6)

apoCaM-CA-Ng.loop3.water5.frame447 

   0  1 
C         69.59462       44.62379       82.27374
C         69.41492       43.51438       81.27967
O         68.53678       43.61069       80.43650
H         70.61453       45.05136       82.16876
H         68.85342       45.43410       82.10179
H         69.46763       44.23194       83.30390
N         70.24454       42.43026       81.31429
C         70.22198       41.31913       80.36126
C         68.97991       40.42327       80.49221
O         68.86073       39.48783       79.71370
C         70.43552       41.86891       78.92372
C         70.83279       40.84360       77.88978
O         71.04000       39.55262       78.21402
O         71.01577       41.20216       76.73763
H         70.98349       42.41422       82.03417
H         71.09971       40.67720       80.59702
H         71.26495       42.60962       78.95107
H         69.51820       42.38772       78.57597
N         68.03369       40.60648       81.46222
C         66.85112       39.75429       81.60472
C         65.56280       40.54116       81.40416
O         64.49658       39.96415       81.56689
C         66.82695       39.09746       82.99975
C         68.03675       38.18443       83.25663
C         67.97316       37.50023       84.63547
C         66.83605       36.46588       84.75350
N         66.82100       35.85372       86.08152
H         68.14255       41.37074       82.14458
H         66.84421       38.93871       80.84854
H         65.90295       38.48892       83.06226
H         66.78349       39.88467       83.78510
H         68.95679       38.80683       83.22189
H         68.11186       37.40811       82.46385
H         67.86854       38.27612       85.42481
H         68.93487       36.96734       84.79980
H         66.98258       35.67410       83.98497
H         65.84697       36.93720       84.58178
H         67.73698       35.39070       86.28073
H         66.62741       36.58318       86.80598
H         66.06209       35.13492       86.11830
N         65.57262       41.85529       81.04004
C         64.35975       42.64711       80.88583
C         63.44468       42.03622       79.83320
O         63.93258       41.40951       78.90216
C         64.75222       44.10236       80.54853
C         63.59116       45.04983       80.57514
O         63.55321       46.05217       81.47299
O         62.69049       44.93765       79.76871
H         66.47106       42.32279       80.87719
H         63.83570       42.65266       81.86762
H         65.25789       44.14397       79.55823
H         65.47870       44.45052       81.31528
N         62.09114       42.16038       79.94512
C         61.14727       41.57952       79.00430
C         61.38249       42.08305       77.60271
O         61.60258       41.26618       76.71928
H         61.70423       42.68890       80.74174
H         60.11418       41.84190       79.31392
H         61.23714       40.47055       79.02834
N         61.39669       43.42094       77.33412
C         61.69935       43.96044       76.01472
C         63.09511       44.57599       75.97600
O         63.26454       45.67722       75.47294
C         60.57792       44.91501       75.52907
C         60.20525       46.04153       76.51360
N         59.29229       46.99495       75.89350
O         61.31922       46.71860       77.00593
H         61.23467       44.07901       78.10550
H         61.75906       43.13566       75.27189
H         59.65242       44.32220       75.36359
H         60.87575       45.34627       74.54821
H         58.41098       46.50246       75.62649
H         59.04638       47.72297       76.60217
N         64.17084       43.85449       76.40666
C         65.55193       44.24778       76.16114
C         66.00598       45.57039       76.75030
O         67.10904       45.97731       76.41954
H         64.01079       42.93085       76.83246
H         65.67985       44.31451       75.05989
H         66.23432       43.45083       76.53102
N         65.25438       46.28776       77.63113
C         65.66483       47.58949       78.15320
C         64.46794       48.51634       78.13749
O         63.43916       48.17709       78.70184
C         66.28674       47.42588       79.54914
C         66.66881       48.74285       80.19126
C         67.52982       49.65284       79.54804
C         66.16382       49.06557       81.46178
C         67.86592       50.86373       80.16332
C         66.51102       50.26954       82.07874
C         67.36168       51.17471       81.43019
O         67.70286       52.34048       82.01539
H         64.37079       45.88754       77.97183
H         66.46116       48.02540       77.51310
H         67.20306       46.80384       79.44471
H         65.58777       46.87867       80.20493
H         67.93871       49.43518       78.57018
H         65.50697       48.38018       81.98236
H         68.52253       51.56013       79.65643
H         66.11833       50.49593       83.06176
H         67.38240       52.58688       82.89502
N         64.53426       49.71121       77.48757
C         63.36294       50.55195       77.27946
C         62.48038       49.85646       76.25703
O         61.29600       49.68176       76.50792
C         63.76216       51.98494       76.80685
C         64.73026       52.69662       77.79414
C         62.51638       52.86713       76.58443
C         64.17805       52.92399       79.20756
H         65.43162       50.00084       77.07268
H         62.81130       50.68269       78.23457
H         64.29379       51.90361       75.83288
H         65.00062       53.68743       77.36741
H         65.67093       52.11602       77.88328
H         62.81005       53.88426       76.25028
H         61.87687       52.44614       75.79784
H         61.90008       52.94942       77.50372
H         64.94260       53.44987       79.81653
H         63.26913       53.55951       79.19107
H         63.94857       51.96250       79.70978
N         63.01420       49.38896       75.08832
C         62.21234       48.71693       74.07068
C         61.25185       49.68138       73.39304
O         60.28528       49.23127       72.79688
C         63.10733       48.04506       73.01655
O         63.88797       49.00459       72.35592
H         64.03065       49.48754       74.93751
H         61.63237       47.91251       74.57224
H         62.47722       47.50299       72.27747
H         63.76820       47.31281       73.53302
H         64.59613       48.50276       71.87435
N         61.48171       51.02623       73.42762
C         60.62764       52.04633       72.83600
C         59.23378       52.04302       73.45333
O         58.25470       52.22411       72.74157
C         60.61257       51.92370       71.30513
H         62.32917       51.37135       73.89802
H         61.08832       53.02980       73.08318
H         60.05184       52.76885       70.85448
H         61.65258       51.94525       70.91423
H         60.13653       50.97370       70.98516
N         59.07924       51.84055       74.79175
C         57.80079       51.83717       75.48932
C         57.83003       52.85326       76.61069
O         58.83882       52.94804       77.29750
C         57.53349       50.44857       76.06645
H         59.91412       51.64253       75.35751
H         56.95800       52.06428       74.79991
H         57.49417       49.70198       75.24467
H         58.32468       50.15558       76.78804
H         56.55074       50.44444       76.58709
N         56.73909       53.63412       76.86768
C         56.67560       54.65066       77.91779
C         57.57735       55.84652       77.62830
O         57.63204       56.73727       78.46538
C         56.94992       54.05820       79.32613
C         55.94558       52.95855       79.69959
C         56.19376       52.45532       81.09371
O         55.24143       52.58576       82.03740
O         57.25472       51.92191       81.37755
H         55.89001       53.49161       76.29972
H         55.64133       55.06091       77.94321
H         56.85280       54.87270       80.07797
H         57.98443       53.66620       79.40448
H         56.02150       52.10632       78.99125
H         54.91611       53.37514       79.64470
N         58.26486       55.97524       76.45395
C         59.09860       57.11797       76.14024
H         60.12940       56.76997       75.92234
H         58.69383       57.62940       75.24147
H         59.14441       57.85422       76.96960
H         58.18782       55.25898       75.72008
Ca        60.81785       46.90248       79.22245
O         60.28888       45.53585       82.28402
H         60.28185       45.94875       83.18378
H         60.67082       44.63375       82.42737
O         61.66936       48.39946       82.30917
H         61.69947       49.37183       82.12698
H         61.36971       48.33352       83.25060
O         60.60238       50.11618       79.68891
H         60.62457       49.45389       78.95582
H         59.93211       50.78072       79.39281
O         58.47813       47.97670       80.81823
H         58.35058       47.90307       81.79716
H         58.22685       48.90989       80.60337
O         58.83564       44.66635       79.64899
H         58.75884       44.33222       78.72026
H         59.15482       43.88733       80.16944

Ca 1.0



