%chk=apoCaM-CA-Ng.loop3.water5.frame130.chk
%nprocshared=20
%mem=10GB
%nosave
#b3lyp/svp scf=(tight,noincore,xqc) Test 
#IOP(5/87=12) Density=Current Pop=(MK,readradii) iop(6/33=2) iop(6/42=6)

apoCaM-CA-Ng.loop3.water5.frame130 

   0  1 
C         64.96511       59.02453       15.53836
C         66.35280       58.52274       15.80306
O         66.64428       58.12493       16.92108
H         64.33929       58.96478       16.45390
H         65.00987       60.08199       15.20217
H         64.49551       58.41022       14.74136
N         67.27120       58.52548       14.79682
C         68.64877       58.06579       14.92347
C         69.38835       58.88647       15.96561
O         69.97859       58.31855       16.87591
C         68.68413       56.53829       15.20150
C         70.06163       55.92026       15.17698
O         71.05685       56.58563       14.93445
O         70.19392       54.60345       15.42424
H         66.98075       58.88792       13.87527
H         69.14743       58.24258       13.94432
H         68.07822       56.02225       14.42688
H         68.22981       56.32719       16.19231
N         69.37012       60.24975       15.90759
C         70.08774       61.07617       16.86878
C         69.10070       61.71377       17.81491
O         69.12290       62.92173       18.01584
C         70.96782       62.11152       16.13779
C         71.92387       61.44659       15.14017
C         72.78344       62.49383       14.42024
C         73.72783       61.87566       13.37508
N         73.00237       61.26314       12.25838
H         68.80668       60.71680       15.18012
H         70.74898       60.44725       17.50385
H         71.55026       62.69274       16.88707
H         70.31043       62.81554       15.57925
H         71.31450       60.89592       14.39615
H         72.58223       60.72688       15.67349
H         73.39985       63.02249       15.17999
H         72.13288       63.24397       13.91895
H         74.38875       61.12191       13.85716
H         74.37102       62.68917       12.97313
H         72.45286       60.43354       12.57428
H         72.36629       61.96443       11.81334
H         73.69228       60.93683       11.54421
N         68.18830       60.92649       18.45127
C         67.26949       61.45471       19.44342
C         68.05261       61.79538       20.70507
O         69.19076       61.36421       20.84530
C         66.14861       60.42095       19.70325
C         65.09996       60.89987       20.66122
O         64.43829       61.89371       20.40775
O         64.87279       60.22139       21.79880
H         68.15100       59.92188       18.22409
H         66.79904       62.37190       19.02415
H         66.59346       59.47582       20.07811
H         65.64203       60.19110       18.74010
N         67.50765       62.58735       21.66416
C         68.19969       62.94014       22.88895
C         68.51200       61.71645       23.71508
O         69.65523       61.54905       24.11584
H         66.56607       62.97788       21.51943
H         67.54040       63.60644       23.48516
H         69.13273       63.50288       22.65834
N         67.53168       60.81423       24.00331
C         67.73373       59.64411       24.85307
C         67.58292       58.31887       24.10953
O         67.67912       57.28313       24.75390
C         66.79488       59.73115       26.07301
C         65.31593       59.62877       25.78848
N         64.44728       59.70925       26.81884
O         64.89262       59.46580       24.65336
H         66.59540       60.97734       23.60937
H         68.76681       59.64547       25.26346
H         66.98447       60.69944       26.58615
H         67.05439       58.91459       26.77974
H         64.78275       59.84209       27.78344
H         63.43821       59.63947       26.65516
N         67.41582       58.25733       22.75758
C         67.36917       56.99960       22.02792
C         66.09992       56.22187       22.28333
O         66.16908       55.09348       22.74891
H         67.40063       59.12592       22.20754
H         68.26830       56.39423       22.27884
H         67.40433       57.20805       20.93661
N         64.90041       56.75802       21.92785
C         63.62740       56.04872       21.98832
C         62.65828       56.78929       22.88226
O         62.39604       57.95707       22.63201
C         63.03431       55.97388       20.56682
C         63.88615       55.14493       19.63961
C         64.57914       55.74693       18.57623
C         63.98172       53.75548       19.82338
C         65.35990       54.97043       17.71456
C         64.75407       52.98001       18.95417
C         65.44781       53.58639       17.89690
O         66.19685       52.85115       17.05071
H         64.89465       57.70986       21.53403
H         63.75585       55.01386       22.37501
H         62.94048       57.01113       20.17559
H         62.01225       55.53450       20.58641
H         64.52178       56.81674       18.41798
H         63.44641       53.27121       20.63089
H         65.89427       55.44383       16.90138
H         64.80973       51.90877       19.10191
H         66.27732       51.89049       17.13723
N         62.05789       56.15156       23.92832
C         61.05562       56.77696       24.78450
C         61.61633       56.85601       26.19208
O         61.73693       57.95776       26.70442
C         59.70798       55.99947       24.69889
C         59.22523       55.79819       23.23428
C         58.60417       56.68487       25.52689
C         58.92644       57.08613       22.45764
H         62.30294       55.16697       24.11439
H         60.85479       57.81858       24.44891
H         59.86483       54.98053       25.11717
H         58.29975       55.18181       23.24559
H         59.99066       55.22271       22.67096
H         58.88111       56.75101       26.58970
H         58.41558       57.71963       25.17535
H         57.66009       56.10272       25.46526
H         58.59255       56.82527       21.43176
H         58.11475       57.66908       22.93730
H         59.82862       57.72055       22.36805
N         62.03279       55.74051       26.86405
C         62.73444       55.82165       28.14722
C         61.89581       56.42122       29.26673
O         62.46596       56.75178       30.29685
C         63.24901       54.43966       28.57962
O         64.08927       53.91505       27.58803
H         61.92146       54.82017       26.41243
H         63.61574       56.48523       27.99387
H         62.37511       53.76598       28.73837
H         63.82351       54.53179       29.52832
H         64.21417       52.95546       27.80852
N         60.54889       56.59513       29.14261
C         59.69926       57.21395       30.14822
C         60.10680       58.65974       30.37340
O         60.42418       59.03589       31.49413
C         59.66662       56.37698       31.43785
H         60.08370       56.27034       28.29044
H         58.65546       57.22800       29.76091
H         59.32525       55.34568       31.20569
H         60.66033       56.32144       31.92561
H         58.94961       56.82446       32.15911
N         60.06759       59.54386       29.33319
C         60.34720       60.97115       29.49937
C         59.93585       61.79162       28.28327
O         59.64658       61.23691       27.23187
C         61.82737       61.21751       29.82221
H         59.75026       59.18559       28.41955
H         59.70977       61.33049       30.33784
H         62.13379       60.68434       30.74452
H         62.46413       60.86321       28.98353
H         62.01661       62.30008       29.98203
N         59.78823       63.14492       28.41133
C         59.24119       64.02005       27.37647
C         57.91720       63.46078       26.88112
O         57.75070       63.23499       25.68898
C         60.24791       64.26184       26.22610
C         61.55948       64.92008       26.68867
C         61.33318       66.28243       27.28606
O         61.70040       66.53151       28.55744
O         60.82195       67.17007       26.62127
H         59.97617       63.57063       29.33216
H         59.02610       65.00913       27.83741
H         59.77979       64.92396       25.46379
H         60.48038       63.30065       25.72941
H         62.23263       65.03400       25.81136
H         62.06681       64.26395       27.42775
N         56.93300       63.17067       27.77350
C         55.68075       62.57464       27.36551
H         55.14824       63.25048       26.66433
H         55.87312       61.59926       26.86781
H         55.04010       62.39606       28.25455
H         57.08771       63.35197       28.77699
Ca        62.23590       60.91703       22.63262
O         61.75288       63.85989       22.24225
H         62.71174       63.94408       22.00975
H         61.31475       63.60213       21.39226
O         59.30329       60.44674       22.94152
H         59.43548       60.73988       22.00462
H         59.21028       61.28840       23.45488
O         62.16988       61.48337       25.42748
H         61.59294       60.68297       25.51370
H         62.35994       61.76236       26.35825
O         61.65030       60.18046       19.78087
H         61.76267       59.20432       19.90129
H         62.30687       60.42200       19.08037
O         64.62061       62.68720       23.93685
H         64.71353       62.71059       24.92231
H         64.77442       63.62170       23.64938

Ca 1.0



