%chk=apoCaM-CA-Ng.loop1.water3.frame449.chk
%nprocshared=20
%mem=10GB
%nosave
#b3lyp/svp scf=(tight,noincore,xqc) Test 
#IOP(5/87=12) Density=Current Pop=(MK,readradii) iop(6/33=2) iop(6/42=6)

apoCaM-CA-Ng.loop1.water3.frame449 

   0  1 
C         91.96029       93.74290       87.23778
C         92.07467       94.62549       86.03178
O         92.55449       94.18071       84.99904
H         90.89363       93.65302       87.53367
H         92.36300       92.72999       87.02759
H         92.53222       94.18993       88.07844
N         91.63959       95.91247       86.09920
C         91.69805       96.84557       84.97985
C         93.12721       97.27175       84.61668
O         93.24468       98.10997       83.75012
C         90.84569       98.10799       85.28556
C         89.37309       97.79433       85.41515
O         88.57423       98.28848       84.63426
O         88.92133       96.98488       86.39180
H         91.21628       96.22533       86.98698
H         91.23842       96.37864       84.08453
H         90.95022       98.82950       84.44458
H         91.20700       98.60846       86.20947
N         94.25437       96.78494       85.21966
C         95.59832       97.31226       84.94458
C         96.53440       96.21440       84.43074
O         96.46970       95.12796       84.98547
C         96.14490       97.90839       86.26194
C         95.21919       98.98066       86.88171
C         95.02778      100.22592       85.99635
C         93.98987      101.21253       86.56004
N         94.38772      101.78053       87.84706
H         94.17580       96.07015       85.95218
H         95.56899       98.12432       84.20919
H         97.15224       98.34262       86.10021
H         96.25003       97.08786       87.00503
H         95.66485       99.29006       87.84971
H         94.22803       98.52581       87.09412
H         94.64281       99.92951       85.00211
H         96.00600      100.73303       85.85457
H         93.00563      100.70272       86.66023
H         93.86217      102.04178       85.83139
H         93.67259      102.48647       88.13640
H         94.42868      101.03958       88.58158
H         95.31492      102.25565       87.75829
N         97.49190       96.37977       83.44877
C         97.83262       97.59494       82.69985
C         98.19078       98.72804       83.63094
O         97.44857       99.69624       83.70438
C         96.76999       97.94805       81.63112
C         96.72505       96.91012       80.55123
O         95.88349       96.98299       79.67072
O         97.60197       95.88619       80.57192
H         98.08405       95.55873       83.24502
H         98.75092       97.41723       82.09898
H         97.03870       98.89393       81.12797
H         95.76465       98.05033       82.07828
N         99.34262       98.72796       84.36315
C        100.40467       97.72247       84.24716
C        101.62516       98.09283       85.08230
O        101.54753       99.03709       85.85616
H         99.48265       99.54747       84.97259
H        100.73901       97.70679       83.18688
H        100.03706       96.71302       84.52876
N        102.83488       97.47305       84.97172
C        103.17120       96.32049       84.14514
C        104.02069       96.77106       82.97147
O        104.93321       97.56639       83.15192
C        103.95285       95.31586       85.02059
C        104.44123       94.11895       84.25074
O        105.76242       93.86389       84.17514
O        103.65010       93.37341       83.69671
H        103.61292       97.88472       85.51275
H        102.26103       95.81605       83.75433
H        103.30279       94.96945       85.85232
H        104.83706       95.82620       85.46441
N        103.79495       96.25174       81.73103
C        104.53867       96.66209       80.55643
C        104.09348       98.03303       80.13354
O        104.90512       98.94673       80.09114
H        103.08233       95.51603       81.61380
H        104.31181       95.97390       79.71352
H        105.63292       96.60761       80.75378
N        102.78710       98.23022       79.79126
C        102.24390       99.50839       79.35886
C        101.15688       99.94944       80.32800
O        100.14516       99.27775       80.47513
C        101.70745       99.40526       77.91723
C        102.84635       99.13434       76.92685
O        101.08456      100.61402       77.56462
H        102.14147       97.42598       79.83463
H        103.04346      100.28194       79.35057
H        100.97026       98.56721       77.87903
H        100.35018      100.38845       76.93580
H        103.37142       98.18707       77.16965
H        102.44156       99.05944       75.89605
H        103.58226       99.96820       76.95423
N        101.34316      101.09280       81.03986
C        100.43078      101.62879       82.05148
C         99.17897      102.31009       81.47249
O         98.45313      102.91788       82.24630
C        101.22116      102.57488       83.02188
C        101.78805      103.84243       82.31789
C        102.32138      101.76151       83.73804
C        102.58558      104.75713       83.25052
H        102.24801      101.55963       80.90692
H        100.07568      100.79536       82.69480
H        100.51906      102.91241       83.81700
H        100.93900      104.42549       81.90299
H        102.46333      103.58535       81.47904
H        102.80733      102.35029       84.54092
H        101.86747      100.88085       84.22881
H        103.10193      101.40461       83.03494
H        101.96977      105.06724       84.11948
H        103.50728      104.25180       83.60875
H        102.90927      105.66065       82.69275
N         98.84263      102.24285       80.14762
C         97.69540      102.94382       79.54398
C         96.31043      102.58371       80.10818
O         95.34926      103.23002       79.71545
C         97.67595      102.71290       78.00684
C         97.37302      101.24494       77.64163
O         98.91312      103.09720       77.46400
H         99.45926      101.71338       79.52122
H         97.85230      104.02985       79.72995
H         96.87634      103.35643       77.57117
H         98.79879      103.13024       76.47827
H         98.12965      100.55312       78.06434
H         96.37532      100.94165       78.02119
H         97.36158      101.12275       76.53877
N         96.12542      101.57202       81.00161
C         94.84764      101.15977       81.59099
C         93.87476      100.54758       80.57596
O         93.98682      100.78995       79.38353
C         94.16850      102.30137       82.39885
C         95.13862      102.97797       83.37267
O         93.08541      101.77782       83.12473
H         96.94966      101.05035       81.31570
H         95.09972      100.34921       82.30929
H         93.79952      103.07483       81.68632
H         92.47147      102.53297       83.32228
H         94.60538      103.75927       83.95532
H         95.57173      102.23731       84.07104
H         95.96224      103.47521       82.82332
N         92.88528       99.71706       81.02238
C         91.81540       99.14190       80.20825
C         91.88771       97.61472       80.08413
O         91.10259       97.07562       79.31548
C         90.46864       99.48642       80.88828
C         90.19489      100.99580       80.97517
C         89.04162      101.34345       81.93543
C         87.70992      100.65479       81.60124
N         86.65240      101.10863       82.50543
H         92.86027       99.51606       82.02272
H         91.85844       99.55402       79.17620
H         90.50147       99.06485       81.91919
H         89.62565       99.00479       80.34763
H         89.98912      101.38308       79.95445
H         91.08778      101.52385       81.36795
H         88.90132      102.44584       81.90703
H         89.33451      101.06180       82.97186
H         87.82152       99.55325       81.70799
H         87.42005      100.88424       80.55321
H         86.49371      102.13517       82.38239
H         85.76635      100.60114       82.28084
H         86.91256      100.91016       83.49928
N         92.75291       96.84414       80.80775
C         92.80990       95.38125       80.70586
C         91.46447       94.73644       80.99500
O         90.91370       94.93722       82.06761
C         93.86934       94.82151       81.68536
C         94.04395       93.28500       81.70170
C         94.41326       92.67717       80.36794
O         93.60711       92.64636       79.45589
O         95.64837       92.19162       80.15582
H         93.39845       97.30750       81.45834
H         93.12377       95.12436       79.67441
H         93.60495       95.13877       82.71770
H         94.84861       95.27457       81.44668
H         93.12373       92.78650       82.07571
H         94.85423       93.07049       82.43292
N         90.90029       93.89970       80.08008
C         89.66169       93.19741       80.32932
H         88.83279       93.92199       80.46336
H         89.42667       92.53396       79.46905
H         89.76101       92.56579       81.23851
H         91.37735       93.72601       79.18356
Ca        97.05815       93.87736       79.81083
O         94.98900       94.74964       77.31822
H         94.01441       94.71385       77.15020
H         95.06409       95.07768       78.24744
O         96.92174       92.34237       76.54155
H         96.39468       92.77396       75.82293
H         97.63504       91.84988       76.06295
O         99.11650       94.68784       76.93347
H         99.46851       94.09282       76.22435
H         99.88380       95.26434       77.17728

Ca 1.0



