%chk=apoCaM-CA-Ng.loop1.water1.frame837.chk
%nprocshared=20
%mem=10GB
%nosave
#b3lyp/svp scf=(tight,noincore,xqc) Test 
#IOP(5/87=12) Density=Current Pop=(MK,readradii) iop(6/33=2) iop(6/42=6)

apoCaM-CA-Ng.loop1.water1.frame837 

   0  1 
C         37.56253        3.17099       84.82922
C         36.99189        3.04976       83.44603
O         35.98604        2.37402       83.27979
H         38.47640        3.80191       84.83620
H         36.81036        3.62831       85.50359
H         37.83394        2.16387       85.21153
N         37.59843        3.67069       82.39392
C         37.12636        3.55853       81.01427
C         37.01683        2.11298       80.58219
O         37.75127        1.28813       81.09096
C         37.96708        4.41128       80.03612
C         39.47090        4.45071       80.27040
O         40.31060        3.38841       80.18978
O         39.96420        5.53354       80.54902
H         38.43926        4.23130       82.59098
H         36.08916        3.96330       80.97149
H         37.61323        5.45877       80.18159
H         37.72553        4.14793       78.98414
N         35.98421        1.72141       79.77716
C         35.58730        0.32292       79.57827
C         36.35481       -0.34369       78.44617
O         35.75734       -0.96808       77.57941
C         34.05820        0.28556       79.36052
C         33.32739        0.76881       80.62937
C         32.02462        1.49537       80.28416
C         31.25841        1.92511       81.54309
N         30.61034        0.78279       82.18779
H         35.32861        2.45830       79.47091
H         35.80827       -0.25871       80.50229
H         33.67064       -0.72567       79.10036
H         33.84862        0.95320       78.49530
H         33.93263        1.51743       81.18454
H         33.19538       -0.10260       81.30473
H         31.36686        0.88668       79.62913
H         32.31384        2.41526       79.72585
H         30.47183        2.65142       81.24496
H         31.94102        2.44167       82.25714
H         30.06712        1.11961       83.01416
H         29.94820        0.33360       81.51330
H         31.31170        0.08049       82.51086
N         37.71117       -0.28361       78.43511
C         38.58381       -1.03821       77.56885
C         39.57644       -1.83118       78.48554
O         40.26804       -1.16308       79.52306
C         39.14104       -0.18469       76.40324
C         39.77822        1.14385       76.69843
O         40.45332        1.66268       75.82413
O         39.26059        1.94495       77.64357
H         38.17824        0.28406       79.12968
H         37.97565       -1.79037       77.03399
H         38.27517        0.05947       75.74655
H         39.82850       -0.80366       75.78920
N         40.41866       -2.88755       77.89573
C         39.75623       -3.75633       76.90577
C         38.36534       -4.24773       77.27455
O         37.93354       -4.11401       78.41233
H         40.77072       -3.48120       78.68331
H         40.40419       -4.63021       76.67563
H         39.66663       -3.17004       75.97176
N         37.57645       -4.75371       76.28236
C         36.17545       -5.11411       76.45237
C         36.02274       -6.59532       76.17890
O         35.86077       -7.34589       77.13163
C         35.31757       -4.21824       75.52163
C         33.83551       -4.48227       75.55414
O         33.30812       -5.44042       76.33975
O         33.09647       -3.81667       74.84590
H         37.98112       -4.84176       75.33770
H         35.85882       -4.92434       77.50305
H         35.66193       -4.33020       74.47120
H         35.48495       -3.15657       75.80486
N         36.07588       -7.10203       74.91235
C         36.06191       -8.53218       74.65869
C         37.39235       -9.17025       75.01742
O         37.47130      -10.38948       75.04206
H         36.14775       -6.46966       74.10280
H         35.91230       -8.72094       73.57357
H         35.21023       -8.99433       75.20303
N         38.50600       -8.39578       75.18304
C         39.86651       -8.90564       75.34543
C         40.88779       -7.86280       74.88549
O         40.54528       -6.72270       74.60055
C         40.19269       -9.29692       76.82312
C         39.94038       -8.14321       77.81283
O         39.54048      -10.46996       77.23374
H         38.39715       -7.38689       75.03168
H         40.01091       -9.77632       74.66725
H         41.27282       -9.53858       76.88001
H         38.56752      -10.30700       77.21582
H         38.85556       -7.92695       77.89794
H         40.33716       -8.40667       78.81613
H         40.45133       -7.21392       77.48217
N         42.19646       -8.21632       74.81257
C         43.27596       -7.29244       74.49501
C         43.92331       -7.75348       73.19274
O         44.05354       -6.94650       72.28292
C         44.25208       -7.20055       75.70811
C         43.45146       -6.97047       77.02619
C         45.26241       -6.05852       75.49042
C         44.29284       -6.96405       78.30040
H         42.44471       -9.19012       75.03536
H         42.87383       -6.26489       74.33737
H         44.79455       -8.16650       75.79984
H         42.74453       -7.80821       77.16147
H         42.86354       -6.02750       76.96832
H         44.73481       -5.07886       75.45478
H         46.00590       -6.02366       76.31211
H         45.82040       -6.19546       74.54259
H         43.61531       -6.89085       79.17941
H         44.86920       -7.90961       78.38285
H         44.98028       -6.09663       78.32997
N         44.22490       -9.07396       72.99314
C         44.63881       -9.63182       71.70944
C         45.88031      -10.47562       71.87195
O         45.98270      -11.23189       72.82892
C         43.52865      -10.53470       71.11684
C         42.23414       -9.75048       70.87473
O         43.97998      -11.06196       69.89164
H         44.06308       -9.74663       73.75490
H         44.82507       -8.82914       70.96078
H         43.32688      -11.36940       71.82767
H         43.30624      -11.72289       69.58460
H         41.84279       -9.33101       71.82377
H         42.41428       -8.92633       70.15162
H         41.46174      -10.42838       70.45277
N         46.81311      -10.47247       70.88556
C         47.98169      -11.33764       70.87311
C         49.24450      -10.50000       70.96532
O         50.20984      -10.96756       71.55339
C         47.93537      -12.23395       69.60599
C         48.99367      -13.34916       69.63976
O         48.08483      -11.43750       68.45545
H         46.65058       -9.85984       70.07331
H         47.96443      -12.01600       71.75583
H         46.93711      -12.73054       69.58253
H         48.13282      -12.04260       67.66957
H         48.86984      -14.01221       68.75504
H         50.01904      -12.92837       69.62518
H         48.86119      -13.97608       70.54742
N         49.32583       -9.26882       70.37454
C         50.55079       -8.48748       70.34016
C         50.25522       -7.00310       70.49768
O         49.39581       -6.49712       69.78656
C         51.21369       -8.76653       68.98343
C         52.68282       -8.32339       68.90974
C         53.27283       -8.81357       67.58080
C         54.77423       -8.54714       67.44526
N         55.26204       -9.07850       66.17053
H         48.53804       -8.92549       69.80897
H         51.25774       -8.83708       71.12370
H         50.61655       -8.32177       68.15519
H         51.21275       -9.87092       68.84669
H         53.24124       -8.79949       69.74662
H         52.77422       -7.21901       69.00375
H         52.73396       -8.31778       66.74450
H         53.11894       -9.91271       67.50420
H         55.32394       -9.04079       68.27885
H         54.96677       -7.45356       67.49369
H         56.26896       -8.82812       66.04806
H         55.16912      -10.12115       66.15933
H         54.71324       -8.67485       65.37648
N         50.99541       -6.21959       71.33555
C         50.91945       -4.76160       71.27712
C         49.74989       -4.18628       72.07653
O         48.89801       -3.57596       71.44611
C         52.30067       -4.13014       71.54721
C         52.29266       -2.61937       71.26638
C         53.68809       -2.06748       71.21496
O         54.09713       -1.54137       70.19119
O         54.49775       -2.15428       72.28646
H         51.77459       -6.65925       71.84906
H         50.74190       -4.49174       70.20902
H         53.01020       -4.60933       70.83467
H         52.67533       -4.33689       72.56848
H         51.70285       -2.09353       72.04691
H         51.81434       -2.43132       70.27939
N         49.58003       -4.30536       73.42622
C         50.47872       -4.98497       74.33012
H         51.45134       -4.46089       74.38095
H         50.04667       -4.96890       75.35541
H         50.60864       -6.04279       74.02798
H         48.73381       -3.88486       73.84335
Ca        40.32809        1.12651       79.85975
O         39.75874        0.45835       82.74079
H         38.81186        0.39017       83.01966
H         40.21734        0.81117       83.54155

Ca 1.0



