%chk=apoCaM-CA-Ng.loop1.water6.frame677.chk
%nprocshared=20
%mem=10GB
%nosave
#b3lyp/svp scf=(tight,noincore,xqc) Test 
#IOP(5/87=12) Density=Current Pop=(MK,readradii) iop(6/33=2) iop(6/42=6)

apoCaM-CA-Ng.loop1.water6.frame677 

   0  1 
C          0.68274       44.13557       76.95387
C         -0.00697       43.70590       75.68775
O         -0.70039       44.50886       75.08364
H          1.37865       44.97253       76.74229
H         -0.07428       44.46476       77.69670
H          1.26362       43.30153       77.40458
N          0.14568       42.43777       75.22212
C         -0.53492       41.92267       74.02789
C         -2.05280       41.93422       74.18854
O         -2.53263       42.11654       75.29914
C          0.01483       40.51737       73.66229
C          0.17596       39.61013       74.86811
O          1.29806       39.30306       75.24016
O         -0.88280       39.17361       75.57056
H          0.78681       41.82863       75.74870
H         -0.30688       42.60630       73.17983
H          1.03458       40.68100       73.24915
H         -0.59042       40.03806       72.86224
N         -2.86980       41.84693       73.08823
C         -4.32641       41.96566       73.17105
C         -5.00380       40.79222       72.46684
O         -5.87943       41.01002       71.63931
C         -4.75315       43.33173       72.56993
C         -6.19447       43.74987       72.92930
C         -6.57204       45.05904       72.21287
C         -7.96241       45.59905       72.59593
N         -8.01409       46.05906       73.98463
H         -2.44000       41.76912       72.15354
H         -4.63453       41.95175       74.23585
H         -4.60684       43.30358       71.46659
H         -4.08760       44.12424       72.97762
H         -6.23456       43.88218       74.02845
H         -6.93348       42.97350       72.64267
H         -6.57175       44.85867       71.11858
H         -5.81607       45.84705       72.41981
H         -8.74267       44.82574       72.41997
H         -8.18682       46.46574       71.93499
H         -7.88960       45.26016       74.64208
H         -7.27543       46.78047       74.15128
H         -8.94792       46.49156       74.16867
N         -4.61955       39.50867       72.72113
C         -5.26939       38.35263       72.11326
C         -5.67411       37.32216       73.15734
O         -4.79296       36.78321       73.80651
C         -4.42913       37.71943       70.97759
C         -3.09715       37.03402       71.20179
O         -2.41141       36.97186       72.35812
O         -2.59683       36.47890       70.23690
H         -3.82673       39.36411       73.34757
H         -6.17518       38.69818       71.58451
H         -4.26408       38.49699       70.20100
H         -5.08034       36.93632       70.52869
N         -6.96595       36.93501       73.38165
C         -8.14913       37.50881       72.75882
C         -8.59686       38.80101       73.42169
O         -9.62935       39.32070       73.02014
H         -7.12673       36.16575       74.05092
H         -8.99139       36.80079       72.91514
H         -8.02582       37.59269       71.65892
N         -7.91322       39.35938       74.46348
C         -8.39532       40.51426       75.22099
C         -7.30257       41.04267       76.12991
O         -6.62322       40.25119       76.77279
C         -9.64918       40.16637       76.05788
C         -9.39337       39.11760       77.10921
O         -9.05310       37.98972       76.79043
O         -9.54345       39.42316       78.41280
H         -7.02354       38.93254       74.75607
H         -8.66911       41.32663       74.51108
H        -10.47368       39.82149       75.40061
H         -9.99391       41.09634       76.56240
N         -7.09111       42.37892       76.26127
C         -5.96702       42.88059       77.03054
C         -5.98985       44.37173       77.25775
O         -7.00346       45.02540       77.05047
H         -7.72921       43.03508       75.78527
H         -5.04310       42.60827       76.47675
H         -5.92539       42.40270       78.03284
N         -4.85337       44.97296       77.69420
C         -4.72575       46.39594       77.98903
C         -3.98885       46.58601       79.31077
O         -3.63123       45.60193       79.94852
C         -3.99257       47.10386       76.81624
C         -2.59480       46.54324       76.55412
O         -4.74930       46.97630       75.64036
H         -4.00692       44.38588       77.77500
H         -5.72685       46.87361       78.07802
H         -3.86505       48.18646       77.04149
H         -5.49492       47.62914       75.70775
H         -1.95494       46.62871       77.45574
H         -2.66443       45.47925       76.25493
H         -2.11395       47.10768       75.72724
N         -3.66908       47.83427       79.75797
C         -2.83083       48.04145       80.93647
C         -3.58730       47.73001       82.21498
O         -2.94174       47.51755       83.23186
C         -2.23848       49.48821       80.96920
C         -1.49119       49.86070       79.65624
C         -1.30679       49.71777       82.17893
C         -0.31946       48.94379       79.29274
H         -3.96487       48.64706       79.20077
H         -1.97780       47.33065       80.86546
H         -3.08273       50.20676       81.06935
H         -1.11234       50.90169       79.74721
H         -2.19517       49.86026       78.80007
H         -1.85470       49.63100       83.13752
H         -0.46780       48.99126       82.18554
H         -0.89468       50.74787       82.15723
H          0.14729       49.30735       78.35368
H          0.45464       48.94309       80.08555
H         -0.66619       47.90607       79.11445
N         -4.95031       47.69207       82.25083
C         -5.68792       47.45181       83.48293
C         -6.64570       48.58925       83.78185
O         -6.89605       49.43942       82.93828
C         -6.41613       46.08442       83.42854
C         -7.37113       45.93931       82.23365
O         -5.48225       45.03311       83.42793
H         -5.48999       47.85750       81.38934
H         -4.98958       47.41515       84.34741
H         -7.01891       45.97619       84.35604
H         -4.92200       45.11918       82.61348
H         -7.88203       44.95524       82.28386
H         -8.13927       46.74024       82.24336
H         -6.81465       45.98239       81.27314
N         -7.19828       48.65531       85.02199
C         -8.14810       49.67309       85.45124
C         -7.97311       49.94069       86.93965
O         -7.78885       51.08708       87.32460
C         -9.60287       49.26754       85.06236
C        -10.10989       47.96803       85.70084
O         -9.68955       49.12045       83.66810
H         -6.89439       47.94547       85.70290
H         -7.93741       50.63355       84.92645
H        -10.30489       50.06992       85.39468
H         -9.90375       50.01326       83.29111
H         -9.43623       47.11881       85.45644
H        -10.21354       48.07025       86.79879
H        -11.12427       47.73191       85.31671
N         -8.01166       48.91074       87.82930
C         -7.93988       49.04739       89.27081
C         -6.80734       48.18000       89.78968
O         -6.79837       46.99321       89.48721
C         -9.29371       48.56128       89.81420
C         -9.48057       48.75330       91.32060
C        -10.85829       48.19882       91.72066
C        -11.20513       48.39497       93.20159
N        -11.36093       49.80890       93.54793
H         -8.14096       47.95252       87.47671
H         -7.79876       50.10950       89.57237
H         -9.42802       47.48791       89.55045
H        -10.09509       49.14119       89.30267
H         -9.41076       49.83913       91.54027
H         -8.68763       48.21730       91.88599
H        -10.86681       47.10725       91.50485
H        -11.65403       48.67560       91.10655
H        -10.43082       47.92375       93.84567
H        -12.17212       47.87726       93.38996
H        -12.06517       50.25883       92.91813
H        -11.70129       49.88048       94.53350
H        -10.44833       50.31129       93.47825
N         -5.83716       48.67852       90.60833
C         -4.79872       47.81512       91.16045
C         -3.84583       47.31232       90.07422
O         -3.78381       46.10292       89.90478
C         -4.10461       48.46234       92.37893
C         -3.11855       47.48636       93.04466
C         -2.63372       48.00938       94.36504
O         -2.01780       49.06088       94.42781
O         -2.87816       47.31157       95.49164
H         -5.88599       49.66653       90.90195
H         -5.31393       46.92825       91.59866
H         -4.90454       48.70308       93.11442
H         -3.59547       49.41179       92.13386
H         -2.25062       47.30443       92.37459
H         -3.62910       46.51541       93.22758
N         -3.08022       48.11243       89.27427
C         -3.05131       49.55738       89.31694
H         -2.36765       49.93661       88.52682
H         -4.06098       49.97248       89.12459
H         -2.65194       49.91547       90.28190
H         -2.48379       47.65700       88.56495
Ca        -2.26981       37.92546       74.37429
O          0.03581       35.80766       73.98296
H          0.24010       36.44338       73.25163
H          0.12852       34.91343       73.56812
O         -3.25788       34.37276       73.91347
H         -2.78684       33.58143       74.27508
H         -4.21859       34.17002       74.04258
O         -4.22420       36.26697       77.06014
H         -4.32013       35.79129       77.92341
H         -5.10842       36.68519       76.90663
O         -1.59628       34.59106       76.65438
H         -2.05656       34.16476       77.42047
H         -0.83141       33.99352       76.45959
O         -1.25660       37.46416       77.92226
H         -1.51876       36.77602       78.58375
H         -0.30214       37.27842       77.73427
O         -3.93779       39.40113       76.43049
H         -3.13252       39.92826       76.65748
H         -4.28876       39.82858       75.61016

Ca 1.0



