%chk=apoCaM-CA-Ng.loop2.water2.frame922.chk
%nprocshared=20
%mem=10GB
%nosave
#b3lyp/svp scf=(tight,noincore,xqc) Test 
#IOP(5/87=12) Density=Current Pop=(MK,readradii) iop(6/33=2) iop(6/42=6)

apoCaM-CA-Ng.loop2.water2.frame922 

   -2  1 
C          2.78251       16.43615        5.74468
C          3.42748       15.29195        5.02243
O          4.10452       15.51397        4.02845
H          1.68174       16.29656        5.76087
H          3.16109       16.47349        6.78831
H          3.01765       17.40060        5.24636
N          3.26282       14.02172        5.48379
C          3.89330       12.86200        4.86366
C          5.40143       13.02235        4.91489
O          6.04759       12.95203        3.87981
C          3.45320       11.56977        5.58771
C          3.99554       10.33599        4.92030
O          3.70556       10.08633        3.76079
O          4.78988        9.49083        5.60423
H          2.67420       13.88220        6.32063
H          3.55208       12.78779        3.80615
H          2.34353       11.50383        5.57581
H          3.78202       11.59456        6.64955
N          6.01120       13.27379        6.10731
C          7.44569       13.47975        6.28083
C          7.71640       13.71774        7.76205
O          7.18458       14.68711        8.28716
C          7.94575       14.69650        5.48267
H          5.40763       13.32062        6.94357
H          7.96832       12.58092        5.90466
H          7.79905       14.56126        4.39304
H          7.41058       15.61898        5.79454
H          9.03434       14.83950        5.65306
N          8.46464       12.89022        8.54698
C          9.18952       11.70949        8.08122
C          9.52711       10.76145        9.22962
O          9.31567       11.08868       10.38856
C         10.45952       12.12216        7.29149
C         11.30880       13.09998        8.06091
O         12.56385       12.79550        8.42742
O         10.86531       14.20254        8.34175
H          8.50176       13.12827        9.55017
H          8.50906       11.10440        7.44460
H         10.18491       12.61890        6.33967
H         11.05091       11.21882        7.02949
N          9.95234        9.49820        8.94360
C         10.12291        8.45893        9.94545
C         11.41024        7.70361        9.72774
O         11.33000        6.55030        9.32858
H         10.04809        9.22202        7.95378
H          9.28838        7.73908        9.79438
H         10.03787        8.83276       10.98593
N         12.64752        8.23419        9.92932
C         12.92980        9.55587       10.47738
C         12.51392        9.59560       11.94567
O         12.94045        8.72779       12.69564
C         14.44876        9.82708       10.32473
C         14.88571       11.22950       10.65370
N         16.18645       11.57582       10.52573
O         14.07496       12.06460       11.01103
H         13.45092        7.63270        9.68241
H         12.39970       10.32548        9.87535
H         14.72313        9.66282        9.25954
H         15.02344        9.10743       10.94775
H         16.88492       10.88771       10.21024
H         16.49750       12.53439       10.73601
N         11.69986       10.57978       12.42886
C         11.23313       10.63600       13.81168
C         11.86999       11.75678       14.61559
O         11.54492       11.88125       15.78761
H         11.40805       11.33585       11.79555
H         11.47422        9.69317       14.34925
H         10.12716       10.73974       13.81040
N         12.84243       12.55082       14.08502
C         13.64089       13.50354       14.84597
C         13.60892       14.87794       14.19329
O         13.88426       14.98359       13.00648
C         15.09812       12.98305       14.92180
C         15.18302       11.66610       15.69905
O         15.62373       12.76970       13.63625
H         13.10923       12.41558       13.10798
H         13.27883       13.59152       15.89446
H         15.72119       13.72101       15.48196
H         16.09619       13.59825       13.37204
H         14.79751       11.80162       16.73190
H         14.59525       10.86868       15.19596
H         16.24067       11.33294       15.75836
N         13.31779       15.98964       14.92917
C         13.34339       17.34460       14.37138
C         14.76367       17.66398       13.91376
O         15.66943       17.60901       14.73491
C         12.85777       18.40428       15.41615
C         12.90618       19.83080       14.79421
C         11.42796       18.07752       15.90361
C         12.51500       20.95270       15.75887
H         13.10520       15.86087       15.92871
H         12.64184       17.38842       13.50795
H         13.53923       18.37461       16.29644
H         12.24281       19.87676       13.90268
H         13.94252       20.05327       14.46258
H         11.36304       17.07459       16.36794
H         11.10425       18.78381       16.69347
H         10.70825       18.11938       15.05937
H         12.63113       21.93137       15.24694
H         11.45546       20.87159       16.07340
H         13.17214       20.93928       16.65401
N         15.02520       18.00588       12.61646
C         16.37040       18.27772       12.11072
C         16.54097       19.69052       11.56534
O         17.65804       20.00357       11.17629
C         16.71892       17.26944       10.99933
C         16.73673       15.86363       11.51422
O         17.59447       15.51345       12.49135
O         15.99230       15.02723       11.03470
H         14.24069       18.05215       11.95259
H         17.11952       18.17201       12.92635
H         17.73114       17.48132       10.59265
H         15.98357       17.36568       10.16840
N         15.51943       20.59576       11.47980
C         15.72770       21.94566       10.95345
C         14.40167       22.68267       10.79929
O         13.68708       22.80221       11.78558
C         16.64454       22.77835       11.88604
C         16.86756       24.16137       11.31509
C         15.99533       25.21350       11.64766
C         17.91531       24.39974       10.40973
C         16.16421       26.47810       11.07952
C         18.08598       25.67061        9.84969
C         17.20906       26.70735       10.18168
H         14.57030       20.31721       11.76578
H         16.22997       21.86070        9.96888
H         17.63079       22.29313       12.03615
H         16.18427       22.85580       12.89554
H         15.17379       25.04983       12.33350
H         18.59375       23.60219       10.13355
H         15.48043       27.27826       11.33174
H         18.89343       25.85067        9.15199
H         17.33643       27.68763        9.74114
N         14.03137       23.27915        9.62028
C         12.85650       24.12497        9.49105
C         11.56611       23.33038        9.40035
O         10.51791       23.95301        9.29386
C         13.15136       24.93606        8.22578
C         13.88283       23.92421        7.37217
C         14.80781       23.26815        8.39493
H         12.77410       24.83788       10.34210
H         12.27294       25.43049        7.75885
H         13.89412       25.72608        8.48733
H         13.13198       23.17295        7.03768
H         14.40253       24.33194        6.47932
H         15.06440       22.24505        8.04556
H         15.72836       23.86970        8.55713
N         11.54566       21.96555        9.46163
C         10.30363       21.19982        9.44727
C          9.41430       21.48318       10.65796
O          8.29070       20.99960       10.66380
C         10.58502       19.68311        9.32356
C         11.35809       19.07841       10.51151
C         11.58285       17.61158       10.28311
O         12.71597       17.17029       10.18923
O         10.53343       16.77562       10.17116
H         12.43628       21.45446        9.49378
H          9.74236       21.49965        8.53385
H         11.16860       19.51207        8.39162
H          9.61440       19.15014        9.21571
H         10.79015       19.21060       11.45667
H         12.34209       19.57814       10.62838
N          9.83335       22.24717       11.71189
C          8.99683       22.56651       12.85083
H          7.98073       22.12747       12.77091
H          9.47594       22.18781       13.77745
H          8.89267       23.66987       12.92630
H         10.78677       22.63163       11.73314
Ca        13.61579       14.41159        9.60078
O         14.84680       15.66104        7.24425
H         14.14662       16.34211        7.40776
H         15.61855       15.96378        7.78585
O         10.90537       14.08297       11.84548
H          9.98885       14.43488       11.97168
H         10.84955       13.54364       11.01770

Ca 1.0



