%chk=apoCaM-CA-Ng.loop3.water5.frame438.chk
%nprocshared=20
%mem=10GB
%nosave
#b3lyp/svp scf=(tight,noincore,xqc) Test 
#IOP(5/87=12) Density=Current Pop=(MK,readradii) iop(6/33=2) iop(6/42=6)

apoCaM-CA-Ng.loop3.water5.frame438 

   0  1 
C        105.56505       62.83185       92.09631
C        104.70139       61.60443       92.05981
O        103.51755       61.71154       92.33831
H        106.61850       62.59606       91.83420
H        105.17995       63.58520       91.37867
H        105.54946       63.26170       93.12034
N        105.23677       60.39314       91.73576
C        104.50298       59.13128       91.73240
C        104.02423       58.80374       93.14367
O        102.85366       58.52154       93.36039
C        103.39329       59.14722       90.65402
C        102.72909       57.80858       90.49330
O        103.45552       56.73096       90.13998
O        101.52575       57.69551       90.66461
H        106.24086       60.34795       91.50199
H        105.22915       58.33522       91.45096
H        103.84990       59.41577       89.67667
H        102.62752       59.91417       90.89625
N        104.92643       58.84448       94.16588
C        104.62879       58.52837       95.56640
C        103.60185       59.45971       96.21161
O        103.25533       59.21624       97.36012
C        105.93098       58.62260       96.39907
C        106.98100       57.57493       95.99635
C        108.31011       57.84485       96.71101
C        109.35010       56.77347       96.36316
N        110.64288       57.08404       96.97191
H        105.89223       59.10747       93.91839
H        104.22990       57.49121       95.62078
H        105.71557       58.47432       97.48062
H        106.34517       59.64842       96.26920
H        107.17669       57.60275       94.90468
H        106.59550       56.56476       96.25595
H        108.15710       57.86254       97.81217
H        108.68889       58.84047       96.38801
H        109.47587       56.71413       95.25904
H        108.99300       55.78565       96.73062
H        111.31957       56.31987       96.74586
H        111.01057       57.98421       96.58556
H        110.54736       57.15906       98.01057
N        103.09182       60.55131       95.57371
C        102.15847       61.48459       96.20355
C        100.85896       60.79211       96.60416
O        100.62230       59.66000       96.20310
C        101.95245       62.67517       95.23631
C        101.12663       63.82558       95.73673
O         99.79337       63.71227       95.83704
O        101.64810       64.91216       95.92911
H        103.41871       60.76560       94.62640
H        102.64635       61.86345       97.12872
H        101.51347       62.31471       94.28006
H        102.96603       63.07475       95.00736
N         99.99420       61.40538       97.46081
C         98.77159       60.79023       97.94467
C         97.81814       60.48397       96.82039
O         97.43986       59.32982       96.67529
H        100.22963       62.33816       97.82936
H         98.27122       61.48068       98.65468
H         99.02097       59.86032       98.50243
N         97.39379       61.46985       95.97712
C         96.47001       61.22588       94.87620
C         97.15582       61.40697       93.52814
O         96.63565       62.10912       92.67318
C         95.19416       62.09484       95.03428
C         95.40936       63.59200       94.91876
N         94.35543       64.43113       95.01560
O         96.52221       64.05611       94.72226
H         97.74876       62.42244       96.12152
H         96.13587       60.16587       94.89829
H         94.73409       61.87854       96.02327
H         94.46610       61.79671       94.24865
H         93.40280       64.07067       95.16939
H         94.49715       65.44643       94.92978
N         98.30681       60.73341       93.24317
C         98.89136       60.70932       91.90878
C         99.40154       62.03718       91.36950
O         99.72907       62.07009       90.19245
H         98.73186       60.13813       93.97052
H         98.11118       60.32712       91.21567
H         99.73797       59.98879       91.88715
N         99.54841       63.14870       92.14616
C        100.05203       64.42867       91.64059
C         99.09967       65.54009       92.02702
O         98.70041       65.61721       93.18051
C        101.46575       64.68432       92.18207
C        101.99823       66.05755       91.83256
C        102.08563       66.49771       90.49890
C        102.40858       66.91924       92.86310
C        102.56231       67.78136       90.20992
C        102.89335       68.19454       92.57163
C        102.96834       68.63249       91.24337
O        103.42823       69.86538       90.95081
H         99.34132       63.08072       93.15329
H        100.14928       64.41251       90.53349
H        102.14467       63.91133       91.76395
H        101.45391       64.57138       93.27636
H        101.77549       65.85829       89.68271
H        102.35710       66.60425       93.89694
H        102.61442       68.11618       89.18150
H        103.20733       68.84086       93.38122
H        103.71957       70.48052       91.63929
N         98.70786       66.45999       91.09965
C         97.67840       67.45449       91.37369
C         96.38603       66.68383       91.53903
O         95.72758       66.80835       92.56057
C         97.58117       68.51548       90.23274
C         98.92761       69.25894       89.98475
C         96.45805       69.53362       90.51893
C         99.48796       70.03195       91.18552
H         99.11338       66.41125       90.15321
H         97.91778       68.00571       92.30845
H         97.32189       67.99928       89.28194
H         98.78862       69.97622       89.14621
H         99.70174       68.53475       89.65942
H         96.62920       70.06887       91.47616
H         96.39472       70.27972       89.69808
H         95.47411       69.02716       90.58277
H        100.43623       70.52825       90.88910
H         98.78592       70.82088       91.52316
H         99.71739       69.35085       92.03019
N         96.03279       65.77239       90.59004
C         94.89764       64.87588       90.73234
C         93.58973       65.62054       90.60128
O         92.63142       65.22888       91.25203
C         94.95850       63.74094       89.68398
O         96.13230       62.96117       89.76225
H         96.64976       65.65454       89.77083
H         94.95031       64.38251       91.73044
H         94.88957       64.17247       88.66350
H         94.09284       63.06383       89.84968
H         96.74353       63.32408       90.45377
N         93.47661       66.70997       89.77967
C         92.24311       67.46976       89.60453
C         91.73171       68.02339       90.92879
O         90.53766       68.26232       91.05277
C         91.18966       66.60161       88.89685
H         94.30452       67.03309       89.25690
H         92.44383       68.33146       88.92996
H         90.27826       67.19871       88.68137
H         91.59555       66.23430       87.93005
H         90.89685       65.72721       89.51329
N         92.58616       68.24122       91.97040
C         92.15338       68.64356       93.29749
C         92.75485       69.97555       93.67143
O         93.97078       70.11440       93.65400
C         92.58886       67.58632       94.31096
H         93.59470       68.08464       91.83589
H         91.04494       68.70842       93.35198
H         92.24749       67.86781       95.33022
H         92.14807       66.60114       94.04842
H         93.69507       67.49827       94.31930
N         91.94018       70.99597       94.06089
C         92.40065       72.29544       94.52700
C         93.13342       73.01854       93.41027
O         94.28459       73.40218       93.56823
C         93.22289       72.11948       95.83483
C         93.54519       73.40873       96.61368
C         92.32631       74.06097       97.21220
O         91.45985       74.54336       96.50185
O         92.19988       74.13752       98.55117
H         90.92044       70.83941       94.05886
H         91.49298       72.88399       94.76516
H         94.18264       71.61452       95.59604
H         92.66182       71.45157       96.52566
H         94.09651       74.13765       95.98584
H         94.21326       73.11804       97.45410
N         92.50214       73.22313       92.22199
C         93.13950       73.89844       91.11334
H         94.06024       73.35401       90.81364
H         92.44815       73.93182       90.24436
H         93.39849       74.93886       91.40258
H         91.53722       72.88097       92.09588
Ca        98.56004       65.54788       96.26711
O         97.09099       68.01206       94.91227
H         96.50508       67.22809       95.06170
H         96.46941       68.78037       94.85843
O        100.21850       66.30669       98.61998
H        100.85383       65.54742       98.63376
H         99.74606       66.25189       99.48819
O         97.44454       63.91402       98.46745
H         97.51273       64.58172       99.19460
H         96.59249       64.12442       98.00920
O        100.15087       68.10340       95.54456
H        100.55234       68.52497       94.74400
H         99.62618       68.82749       95.97000
O         96.71848       67.23644       97.82938
H         96.12539       66.99761       98.58456
H         97.27886       67.97739       98.17168

Ca 1.0



