%chk=apoCaM-CA-Ng.loop4.water4.frame1000.chk
%nprocshared=20
%mem=10GB
%nosave
#b3lyp/svp scf=(tight,noincore,xqc) Test 
#IOP(5/87=12) Density=Current Pop=(MK,readradii) iop(6/33=2) iop(6/42=6)

apoCaM-CA-Ng.loop4.water4.frame1000 

   -3  1 
C         61.90990      101.69754       71.59750
C         60.85101      102.75764       71.67759
O         61.18829      103.93219       71.68878
H         62.59355      101.78689       72.46652
H         61.46538      100.67916       71.60194
H         62.48783      101.82176       70.65793
N         59.53504      102.40798       71.71772
C         58.42496      103.35162       71.77057
C         58.46778      104.27899       70.56900
O         58.41960      105.49096       70.73693
C         58.39652      104.15165       73.09852
C         58.42503      103.27640       74.31643
O         57.39485      103.28475       75.18329
O         59.40481      102.58885       74.55092
H         59.29047      101.40588       71.68402
H         57.48293      102.75975       71.71390
H         57.46759      104.76437       73.11553
H         59.26331      104.84341       73.15850
N         58.59801      103.77225       69.31082
C         58.65173      104.64008       68.14129
C         57.28176      105.28541       67.97599
O         56.34136      104.54255       67.72932
C         59.03959      103.84166       66.85263
C         60.43943      103.16754       66.95149
C         58.96415      104.72116       65.58637
C         61.63004      104.13077       67.06155
H         58.67566      102.75055       69.19438
H         59.44955      105.38230       68.29130
H         58.29615      103.02382       66.72037
H         60.59360      102.54514       66.04281
H         60.46827      102.48101       67.82234
H         57.93808      105.11597       65.43482
H         59.65507      105.58502       65.65119
H         59.22151      104.12254       64.68693
H         61.57078      104.75123       67.97775
H         62.57065      103.54314       67.11108
H         61.69981      104.79042       66.17253
N         57.03727      106.62720       68.04979
C         57.98195      107.69350       68.38147
C         57.39126      108.56097       69.50062
O         56.23697      108.36354       69.85764
C         58.30126      108.40205       67.05066
C         59.13115      109.64158       67.10653
O         58.74181      110.63181       66.51567
O         60.33895      109.65143       67.69851
H         56.07677      106.92919       67.81817
H         58.92805      107.30018       68.79173
H         57.35247      108.63990       66.52160
H         58.85787      107.67144       66.42702
N         58.15898      109.47042       70.17454
C         57.68673      110.19658       71.35109
C         57.77202      111.70494       71.23656
O         57.43435      112.35950       72.21313
H         59.14531      109.59372       69.90750
H         58.31176      109.88644       72.21626
H         56.63340      109.94064       71.59520
N         58.18303      112.33874       70.09944
C         58.27480      113.80176       70.01127
C         58.34694      114.38653       68.58774
O         58.36771      115.60565       68.48963
C         59.43669      114.31356       70.90804
C         60.75988      113.64061       70.63952
O         61.30640      113.73770       69.55602
O         61.36021      112.93371       71.61666
H         58.43422      111.75082       69.30265
H         57.32625      114.23273       70.40208
H         59.18282      114.11700       71.96990
H         59.54550      115.41515       70.80704
N         58.33186      113.63364       67.44627
C         58.33044      114.18766       66.09497
C         59.59334      114.93859       65.71439
O         59.65290      115.45060       64.60642
H         58.26025      112.62424       67.50521
H         57.45262      114.85763       65.98504
H         58.21779      113.35301       65.36683
N         60.64410      115.03890       66.57075
C         61.89220      115.73705       66.31628
C         62.69039      115.06699       65.20744
O         63.37512      115.74431       64.45498
C         61.68491      117.26187       66.13829
C         60.82806      117.84497       67.27966
C         60.78987      119.35147       67.26770
N         60.30554      120.03627       66.20597
O         61.19500      119.96431       68.24438
H         60.58529      114.58068       67.48085
H         62.50877      115.60695       67.23490
H         61.19131      117.48102       65.16717
H         62.68482      117.74788       66.13922
H         61.24418      117.51114       68.25539
H         59.78832      117.46128       67.19707
H         59.95299      119.54563       65.37231
H         60.28425      121.06727       66.22014
N         62.65852      113.70665       65.08515
C         63.46401      112.93919       64.13547
C         64.27130      111.85267       64.84733
O         64.96076      111.10305       64.16246
C         62.55408      112.27754       63.05936
C         61.59064      111.22684       63.64445
C         61.76482      113.33234       62.27498
H         62.01774      113.17906       65.69408
H         64.17791      113.60823       63.60607
H         63.21569      111.75497       62.33167
H         62.15146      110.42103       64.16159
H         60.87840      111.68256       64.36232
H         61.00967      110.74952       62.82774
H         62.45749      114.06663       61.81204
H         61.18159      112.84571       61.46447
H         61.05901      113.87169       62.93952
N         64.21508      111.66898       66.19840
C         64.81096      110.51811       66.87231
C         64.88260      110.73812       68.38161
O         64.33837      111.71680       68.88488
C         63.92604      109.27854       66.55233
C         64.40111      107.98056       67.15234
N         63.65682      107.33673       68.08459
O         65.46692      107.50393       66.79222
H         63.68994      112.34588       66.76755
H         65.85653      110.39417       66.51109
H         63.84799      109.12833       65.45551
H         62.90201      109.50018       66.92555
H         62.75856      107.72532       68.40914
H         63.98386      106.45039       68.49644
N         65.57178      109.87598       69.17651
C         65.61287      110.01323       70.62415
C         66.57136      109.01959       71.24009
O         66.49445      107.83722       70.92646
C         64.21086      109.78416       71.24318
C         64.25218      109.98532       72.74176
C         64.59440      111.24056       73.27484
C         63.97457      108.92176       73.61657
C         64.66797      111.42622       74.65642
C         64.04663      109.11113       75.00041
C         64.39665      110.36470       75.52418
O         64.47719      110.56077       76.85536
H         66.10007      109.10747       68.73433
H         65.95875      111.04139       70.86917
H         63.87388      108.75310       70.99262
H         63.46289      110.48741       70.82505
H         64.81282      112.07537       72.62092
H         63.71333      107.94436       73.23040
H         64.94050      112.39681       75.05153
H         63.83618      108.28227       75.66401
H         64.30041      109.85346       77.49146
N         67.41680      109.42494       72.22812
C         68.25650      108.51036       72.97840
C         67.68303      108.39548       74.38297
O         67.77474      109.36897       75.11937
C         69.70052      109.05247       73.00594
C         70.67046      108.15155       73.78219
C         72.02239      108.79971       73.87540
O         72.15920      109.98428       74.50398
O         73.00352      108.25411       73.39771
H         67.39381      110.41317       72.52761
H         68.26605      107.52830       72.48225
H         69.68522      110.06136       73.47753
H         70.07012      109.17055       71.96358
H         70.74383      107.16650       73.27174
H         70.30568      107.98686       74.81811
N         67.02352      107.29317       74.85001
C         66.68096      106.10237       74.07371
C         67.90755      105.31108       73.66441
O         68.70384      104.94941       74.51944
C         65.72087      105.20852       74.88848
C         65.22171      103.99964       74.07907
C         64.20131      103.22247       74.85369
O         64.42702      101.93214       75.16537
O         63.15453      103.75303       75.19011
H         66.66352      107.34970       75.81670
H         66.10894      106.42399       73.17587
H         64.84038      105.82813       75.17065
H         66.21507      104.85799       75.82212
H         66.07651      103.33455       73.82955
H         64.75298      104.34360       73.13171
N         68.08561      104.97176       72.35516
C         69.20559      104.19549       71.86765
H         69.92462      103.93775       72.67229
H         68.82752      103.25371       71.41606
H         69.73967      104.77645       71.08720
H         67.37931      105.25902       71.66077
Ca        61.62086      101.53734       76.36864
O         61.16602      104.59535       77.61340
H         61.94097      105.14963       77.88305
H         60.52639      105.23784       77.21532
O         63.45771      102.30489       78.75560
H         63.89872      101.64327       78.16539
H         64.20350      102.74486       79.23531
O         59.14143       99.95096       76.18289
H         58.48486       99.62932       76.84925
H         58.58954      100.37431       75.47950
O         60.02094      101.89499       78.90578
H         59.24715      102.47252       78.68640
H         59.68722      101.28648       79.61159

Ca 1.0



