%chk=apoCaM-CA-Ng.loop1.water3.frame265.chk
%nprocshared=20
%mem=10GB
%nosave
#b3lyp/svp scf=(tight,noincore,xqc) Test 
#IOP(5/87=12) Density=Current Pop=(MK,readradii) iop(6/33=2) iop(6/42=6)

apoCaM-CA-Ng.loop1.water3.frame265 

   0  1 
C          7.07278       22.05226       11.30233
C          6.59607       22.95907       12.40166
O          6.80565       22.64908       13.56536
H          8.17533       21.94045       11.36288
H          6.59414       21.05672       11.40245
H          6.82118       22.46156       10.29979
N          5.95333       24.11807       12.09700
C          5.49231       25.07961       13.09385
C          4.26085       24.60170       13.87109
O          3.73147       25.41340       14.60634
C          5.12809       26.42353       12.40176
C          6.29536       27.09372       11.72404
O          6.85901       26.56707       10.77891
O          6.70320       28.30778       12.14241
H          5.82912       24.34787       11.09934
H          6.31508       25.30879       13.80775
H          4.77277       27.13611       13.17342
H          4.30641       26.27068       11.66813
N          3.70699       23.35709       13.75546
C          2.38857       23.03030       14.31093
C          2.44149       21.94667       15.36908
O          3.18047       20.99547       15.15365
C          1.49935       22.50113       13.16820
C          1.37207       23.48750       12.00364
C          0.44723       22.90772       10.93043
C          0.38110       23.81970        9.70297
N         -0.52384       23.26510        8.69747
H          4.16871       22.63631       13.18549
H          1.92516       23.92998       14.73561
H          0.48854       22.26597       13.56304
H          1.93270       21.55282       12.77634
H          2.37748       23.66431       11.56229
H          0.96360       24.45561       12.36691
H         -0.57119       22.78032       11.35970
H          0.82697       21.91165       10.61163
H          1.40034       23.91854        9.26603
H          0.02548       24.83013       10.00270
H         -0.20224       22.31255        8.40802
H         -1.49375       23.20606        9.08476
H         -0.52963       23.89007        7.85978
N          1.62485       21.88942       16.47602
C          0.61975       22.84142       16.98619
C         -0.49716       23.17483       15.99609
O         -0.31853       24.04957       15.16338
C          1.25373       24.08864       17.62850
C          2.14246       23.71822       18.78810
O          2.26515       22.42578       19.15944
O          2.76939       24.58389       19.37523
H          1.71638       21.03005       17.04213
H          0.13303       22.34038       17.84715
H          0.45495       24.75364       18.01557
H          1.84481       24.64193       16.87450
N         -1.70883       22.54693       16.01415
C         -2.06212       21.51287       16.97582
C         -3.37539       20.82072       16.66133
O         -3.99730       21.12484       15.65327
H         -2.38828       22.81943       15.28758
H         -2.10923       21.96298       17.98945
H         -1.27821       20.72546       16.94720
N         -3.85176       19.80833       17.44131
C         -3.21322       19.36633       18.68048
C         -3.48785       20.32797       19.83340
O         -4.35657       21.18184       19.71835
C         -3.70252       17.94917       19.08170
C         -5.16236       17.88192       19.47151
O         -6.04193       18.14279       18.66697
O         -5.50337       17.50937       20.71975
H         -4.67972       19.30600       17.09147
H         -2.12057       19.27790       18.49896
H         -3.10224       17.60136       19.95006
H         -3.51382       17.24011       18.24698
N         -2.83013       20.16743       21.01778
C         -3.21139       20.82195       22.26205
C         -3.12973       22.33412       22.32675
O         -3.51539       22.85331       23.36497
H         -2.08872       19.45262       21.07469
H         -2.57593       20.42115       23.08175
H         -4.26192       20.53370       22.48245
N         -2.67160       23.11693       21.30856
C         -2.67529       24.58117       21.37909
C         -3.62128       25.13491       20.32293
O         -4.14256       24.36639       19.52447
C         -1.22195       25.11017       21.23531
C         -0.35193       24.62657       22.39874
O         -1.19763       26.51290       21.23534
H         -2.32453       22.67743       20.44373
H         -3.07710       24.93186       22.35501
H         -0.80928       24.72740       20.27178
H         -0.36930       26.79130       20.76298
H          0.68133       25.01458       22.27876
H         -0.75825       25.00716       23.36157
H         -0.31412       23.51910       22.43557
N         -3.90778       26.46997       20.27663
C         -4.79381       27.06415       19.27851
C         -4.00714       27.87628       18.26187
O         -4.58772       28.25857       17.25566
C         -5.91873       27.91691       19.94354
C         -5.34916       29.18560       20.64418
C         -6.73788       27.04624       20.91313
C         -6.42363       30.12849       21.18810
H         -3.46855       27.09307       20.96656
H         -5.27825       26.25296       18.69118
H         -6.60083       28.25676       19.13211
H         -4.76264       29.77329       19.90599
H         -4.67291       28.90922       21.47919
H         -6.11019       26.70623       21.76463
H         -7.60798       27.60264       21.31570
H         -7.13580       26.15511       20.38387
H         -7.10894       30.44496       20.37360
H         -7.00628       29.65283       22.00199
H         -5.93618       31.03342       21.60991
N         -2.69216       28.19038       18.45937
C         -1.88162       28.91179       17.49008
C         -0.61052       28.14463       17.18801
O         -0.29459       27.17883       17.86865
C         -1.53779       30.33002       18.01090
C         -0.78651       30.31777       19.35007
O         -2.71638       31.07565       18.16688
H         -2.23118       27.92103       19.33516
H         -2.43924       29.02070       16.53394
H         -0.87309       30.84120       17.27479
H         -2.96156       31.41539       17.26634
H          0.15764       29.73873       19.27206
H         -0.53345       31.35726       19.64540
H         -1.41309       29.88020       20.15547
N          0.17256       28.53778       16.15011
C          1.43498       27.88885       15.82722
C          2.49602       28.19614       16.88022
O          2.46162       29.27003       17.46467
C          1.92265       28.29440       14.41074
C          2.26067       29.78414       14.26249
O          0.94547       27.95879       13.45831
H         -0.17480       29.30034       15.55173
H          1.25992       26.79003       15.78471
H          2.85597       27.74388       14.18180
H          0.96351       26.97052       13.35924
H          1.37783       30.42862       14.44755
H          3.07226       30.07545       14.96009
H          2.61217       29.98045       13.22733
N          3.49628       27.30142       17.13260
C          4.62375       27.56194       18.03368
C          5.56503       26.36252       18.29180
O          6.53161       26.57175       19.01381
C          5.47029       28.75245       17.50595
C          6.09096       28.49150       16.11866
C          7.06625       29.60007       15.68549
C          6.40545       30.97681       15.50691
N          7.38984       31.97118       15.07939
H          3.43083       26.41780       16.63976
H          4.21522       27.84459       19.02899
H          6.28414       28.95979       18.23484
H          4.84691       29.66480       17.46367
H          5.28924       28.37187       15.35836
H          6.67535       27.54691       16.15396
H          7.51821       29.29902       14.71555
H          7.88344       29.67588       16.43604
H          5.95728       31.31829       16.46358
H          5.59917       30.90399       14.74404
H          7.81439       31.69125       14.16559
H          6.91618       32.89621       14.96430
H          8.14055       32.06583       15.80212
N          5.37617       25.09627       17.80326
C          6.30661       24.00642       18.09227
C          7.61795       24.22500       17.36952
O          7.61895       24.28791       16.14768
C          5.68466       22.65119       17.69338
C          6.54867       21.41661       18.02782
C          7.05274       21.35340       19.45547
O          8.25499       21.29048       19.65648
O          6.21917       21.36771       20.51798
H          4.54301       24.85837       17.25697
H          6.46688       23.96906       19.19131
H          5.44975       22.63644       16.60583
H          4.72190       22.56479       18.21871
H          7.42673       21.40668       17.34559
H          5.94799       20.50666       17.81306
N          8.78020       24.33154       18.07157
C         10.07634       24.50549       17.44807
H         10.73554       23.65937       17.73524
H         10.01443       24.53654       16.33983
H         10.53151       25.45324       17.80242
H          8.75448       24.27735       19.10085
Ca         3.99854       21.62534       20.32828
O          5.45402       21.29631       23.47151
H          6.40785       21.16446       23.24035
H          5.40234       22.23514       23.78142
O          2.19701       22.41316       22.91228
H          2.43257       23.36694       22.79055
H          1.79652       22.37084       23.81685
O          4.96820       24.29361       21.85319
H          5.66257       24.99834       21.85374
H          4.79995       24.11999       20.89479

Ca 1.0



