%chk=apoCaM-CA-Ng.loop2.water4.frame1028.chk
%nprocshared=20
%mem=10GB
%nosave
#b3lyp/svp scf=(tight,noincore,xqc) Test 
#IOP(5/87=12) Density=Current Pop=(MK,readradii) iop(6/33=2) iop(6/42=6)

apoCaM-CA-Ng.loop2.water4.frame1028 

   -2  1 
C         28.94382       66.12683       75.29999
C         27.79554       65.16162       75.19096
O         27.38007       64.90966       74.06918
H         29.82468       65.71063       74.76778
H         28.65021       67.08148       74.81603
H         29.23080       66.36766       76.33872
N         27.18166       64.57897       76.26187
C         27.58767       64.71421       77.66485
C         26.48758       64.19085       78.60190
O         25.37997       63.93912       78.14665
C         28.95950       64.01697       77.90636
C         28.93232       62.53897       77.66772
O         28.72387       62.10331       76.54851
O         29.19343       61.68963       78.67844
H         26.37120       63.98223       76.03893
H         27.69811       65.78946       77.92002
H         29.29990       64.20716       78.94326
H         29.74955       64.43914       77.25796
N         26.72221       64.00159       79.93414
C         25.72864       63.51359       80.88373
C         25.01640       62.26495       80.37316
O         23.79246       62.22527       80.38559
C         24.75246       64.64359       81.24652
H         27.66297       64.17152       80.31255
H         26.26412       63.24208       81.82084
H         24.18269       64.97986       80.35471
H         24.03665       64.30313       82.02532
H         25.31626       65.51038       81.65371
N         25.72824       61.21493       79.86981
C         25.09911       60.00393       79.36083
C         25.74324       58.70175       79.93291
O         27.14508       58.61845       79.97537
C         24.71777       60.09337       77.83842
C         25.61078       60.72326       76.77422
O         25.17013       61.65693       76.12259
O         26.81837       60.24096       76.43870
H         26.75334       61.29370       79.80488
H         24.08902       59.90830       79.82138
H         23.79765       60.72229       77.81052
H         24.39773       59.09023       77.48855
N         25.08771       57.49948       79.39267
C         25.78849       56.22843       79.63470
C         26.63495       55.84435       78.44292
O         26.73573       56.61371       77.49960
H         24.14586       57.45385       79.84654
H         25.02591       55.42663       79.74443
H         26.38524       56.25287       80.57370
N         27.24070       54.62343       78.39629
C         28.06832       54.18526       77.26946
C         27.32179       54.10260       75.93689
O         27.97850       53.82007       74.94305
C         28.69728       52.80091       77.55273
C         29.61980       52.81104       78.74470
N         29.40397       51.98639       79.79572
O         30.58894       53.55529       78.74949
H         27.12268       53.99463       79.20601
H         28.88915       54.92265       77.13752
H         29.30755       52.48469       76.67893
H         27.88578       52.05186       77.68959
H         28.60194       51.33975       79.80660
H         30.04999       51.98564       80.59895
N         25.97904       54.31840       75.80974
C         25.29342       54.22448       74.52862
C         25.75383       55.27585       73.52896
O         26.60354       56.08718       73.86593
H         25.40066       54.52276       76.63565
H         24.20441       54.37654       74.69734
H         25.45223       53.20625       74.11616
N         25.21619       55.38039       72.27749
C         24.17842       54.50445       71.74352
C         24.55798       53.98669       70.35706
O         24.57344       52.77846       70.16633
C         22.79888       55.21316       71.80356
C         22.64957       56.46083       70.93355
O         21.78306       54.30640       71.45807
H         25.53205       56.16964       71.69340
H         24.04903       53.61945       72.39973
H         22.64862       55.55480       72.85668
H         21.55549       53.79819       72.28097
H         21.66102       56.92767       71.12806
H         23.43705       57.20791       71.16372
H         22.67471       56.19113       69.86087
N         24.87015       54.84349       69.33846
C         25.17241       54.40188       67.97607
C         26.46810       53.58126       67.99142
O         27.45218       54.11731       68.48216
C         25.33583       55.61522       66.99297
C         24.06463       56.51438       66.97110
C         25.63675       55.09740       65.56644
C         24.20526       57.76723       66.10141
H         24.88903       55.84964       69.54290
H         24.29369       53.84520       67.61389
H         26.19622       56.23329       67.33388
H         23.84764       56.88982       67.98713
H         23.18465       55.92793       66.62815
H         24.78822       54.48682       65.18862
H         25.82439       55.92744       64.85821
H         26.55471       54.47720       65.54850
H         25.07492       58.37144       66.43782
H         24.31986       57.51616       65.02858
H         23.28833       58.38620       66.19819
N         26.62136       52.32682       67.45836
C         25.60545       51.53522       66.76485
C         25.94243       51.39821       65.28723
O         26.99726       51.84883       64.85965
C         25.41781       50.16595       67.46154
C         26.61580       49.24391       67.44845
O         26.52652       48.04861       68.06154
O         27.65647       49.54762       66.88704
H         27.56851       51.92223       67.51234
H         24.62742       52.03309       66.79304
H         24.57578       49.62322       66.98201
H         25.13670       50.35493       68.51998
N         25.03501       50.84538       64.43262
C         25.23066       50.78198       62.98579
C         23.92432       50.33816       62.32473
O         23.44088       49.27688       62.69954
C         26.37454       49.81840       62.58956
C         26.74514       50.03403       61.13772
C         26.48412       49.05691       60.16402
C         27.35192       51.24487       60.74761
C         26.80954       49.29626       58.82294
C         27.67832       51.47703       59.40992
C         27.40420       50.50478       58.44686
H         24.13330       50.53565       64.82794
H         25.52682       51.78672       62.64994
H         26.05344       48.77230       62.78767
H         27.29201       49.99724       63.18762
H         26.01577       48.12048       60.43750
H         27.56858       52.01297       61.48027
H         26.59710       48.54668       58.07224
H         28.13987       52.41307       59.12091
H         27.65299       50.68923       57.40961
N         23.28159       51.04427       61.33875
C         23.78169       52.23281       60.66220
C         23.57356       53.50283       61.49289
O         24.06050       53.54718       62.61179
C         23.04058       52.16858       59.31378
C         21.67787       51.65853       59.73900
C         22.06924       50.55131       60.71060
H         24.86086       52.14493       60.43433
H         23.06293       53.07929       58.68291
H         23.50231       51.35774       58.70252
H         21.17028       52.47024       60.30700
H         21.00620       51.32267       58.92063
H         21.24705       50.36273       61.43492
H         22.31843       49.61167       60.16790
N         22.91569       54.60051       61.01168
C         22.82168       55.85531       61.74793
C         23.37910       56.98774       60.87750
O         22.62100       57.87135       60.50368
C         21.34483       56.05134       62.15429
C         21.13121       57.23742       63.10873
C         19.69139       57.31859       63.52679
O         19.03384       58.31676       63.28003
O         19.11987       56.29099       64.18443
H         22.46525       54.57940       60.08814
H         23.40577       55.81776       62.69384
H         21.02247       55.12980       62.68882
H         20.71084       56.16162       61.24628
H         21.42672       58.18998       62.62273
H         21.75509       57.10341       64.01862
N         24.68296       57.05462       60.47026
C         25.73634       56.12361       60.82005
H         26.56338       56.67457       61.31376
H         25.41136       55.33899       61.51587
H         26.12767       55.64617       59.89658
H         24.95958       57.83938       59.85966
Ca        27.85282       59.05499       77.93556
O         30.47339       57.02727       77.75139
H         30.48372       56.35786       78.48060
H         31.17164       56.71912       77.12070
O         28.91205       57.71344       74.96070
H         28.34510       57.20137       75.58838
H         29.50925       57.03288       74.56067
O         31.07065       59.59384       75.99578
H         31.44950       58.84941       75.46371
H         31.57574       60.39177       75.69911
O         30.65852       59.30132       79.78950
H         30.85100       58.79218       80.61630
H         31.11636       60.16941       79.92028

Ca 1.0



