%chk=apoCaM-CA-Ng.loop2.water4.frame1118.chk
%nprocshared=20
%mem=10GB
%nosave
#b3lyp/svp scf=(tight,noincore,xqc) Test 
#IOP(5/87=12) Density=Current Pop=(MK,readradii) iop(6/33=2) iop(6/42=6)

apoCaM-CA-Ng.loop2.water4.frame1118 

   -2  1 
C         50.26134       63.52569       49.05336
C         51.62150       62.98805       48.69959
O         52.41978       62.79190       49.60413
H         49.48338       62.79664       48.73991
H         50.17187       63.67135       50.15137
H         50.08609       64.50088       48.55556
N         51.97974       62.67278       47.42137
C         51.12597       62.85039       46.24941
C         51.87533       63.59669       45.14403
O         52.98165       64.06364       45.38010
C         50.55232       61.48776       45.81078
C         51.55650       60.53702       45.24412
O         51.41189       60.12938       44.10342
O         52.58576       60.09295       45.98997
H         52.90804       62.24482       47.27863
H         50.23101       63.45441       46.50208
H         49.76143       61.65782       45.04944
H         50.05527       61.00881       46.68179
N         51.31565       63.75259       43.90685
C         51.88313       64.52868       42.80373
C         53.23437       64.05433       42.25363
O         53.68693       64.68788       41.30922
C         51.96266       66.01097       43.20320
H         50.38901       63.33768       43.73445
H         51.16359       64.46829       41.95586
H         52.69295       66.17253       44.02234
H         52.27103       66.63250       42.33527
H         50.96462       66.36649       43.53779
N         53.94737       62.99752       42.75774
C         55.28600       62.64046       42.26243
C         55.37638       61.19352       41.73937
O         54.15239       60.71641       41.27840
C         56.31436       62.88422       43.38532
C         56.18825       62.07842       44.67780
O         55.31890       61.05344       44.88214
O         56.93862       62.37468       45.59340
H         53.56032       62.46086       43.54103
H         55.55697       63.30014       41.40944
H         56.22333       63.95883       43.65835
H         57.34071       62.73683       42.98800
N         56.48057       60.95274       40.79763
C         56.54596       59.55620       40.33600
C         56.95688       58.56729       41.41488
O         56.28661       58.47153       42.43198
H         57.39369       61.20784       41.23796
H         57.26030       59.50494       39.48698
H         55.56134       59.24723       39.92407
N         58.01110       57.72699       41.20690
C         58.34980       56.63770       42.11875
C         58.90198       57.16116       43.43739
O         59.88936       57.88314       43.43070
C         59.35108       55.67546       41.44386
C         59.51410       54.39377       42.22654
N         60.72633       53.99814       42.67593
O         58.53531       53.69241       42.43893
H         58.52626       57.80220       40.31589
H         57.42161       56.04701       42.28928
H         60.32663       56.18574       41.28770
H         58.95331       55.38942       40.44522
H         61.56763       54.56507       42.50048
H         60.82313       53.11323       43.19642
N         58.30910       56.81355       44.61456
C         58.75479       57.26271       45.92873
C         60.13483       56.75114       46.32060
O         60.77950       56.09969       45.51095
H         57.47772       56.20426       44.58325
H         58.03380       56.86384       46.67327
H         58.73157       58.37236       45.97217
N         60.66565       56.95451       47.56840
C         59.98969       57.65675       48.66212
C         60.83533       58.78964       49.22670
O         62.01300       58.89520       48.91345
C         59.65170       56.65777       49.79859
C         58.62561       55.61879       49.34408
O         60.80913       55.98596       50.23100
H         61.58974       56.53929       47.76912
H         59.04800       58.11918       48.30553
H         59.18533       57.19485       50.65695
H         61.31668       56.61364       50.80797
H         59.01229       55.02163       48.49149
H         58.39531       54.92749       50.18243
H         57.68365       56.12238       49.03933
N         60.25181       59.70043       50.06389
C         60.95170       60.82318       50.68802
C         60.57952       60.91664       52.17509
O         59.40262       60.78737       52.48116
C         60.64304       62.16432       49.95209
C         59.14597       62.57384       50.00016
C         61.16792       62.09181       48.50478
C         58.86431       63.94445       49.37974
H         59.23596       59.62078       50.22344
H         62.04456       60.68413       50.58001
H         61.23097       62.95183       50.47039
H         58.81943       62.64996       51.05611
H         58.52006       61.81199       49.48916
H         60.59884       61.34409       47.91327
H         61.09930       63.07533       48.00002
H         62.24287       61.81051       48.50016
H         59.46694       64.72873       49.88234
H         59.08047       63.95373       48.29327
H         57.79033       64.19309       49.50981
N         61.47150       61.19410       53.17457
C         62.90142       61.40560       52.98574
C         63.49963       62.33968       54.04149
O         62.80481       62.78775       54.94493
C         63.62416       60.03595       52.95549
C         63.50737       59.28528       54.25699
O         64.61574       58.97580       54.95654
O         62.41522       58.93686       54.67680
H         61.08991       61.27422       54.13096
H         63.06779       61.93980       52.02750
H         64.69894       60.18483       52.72584
H         63.20538       59.40190       52.14634
N         64.81871       62.66882       53.96272
C         65.53924       63.51477       54.90745
C         66.24460       64.62934       54.14224
O         66.87692       64.32046       53.13844
C         66.53038       62.61592       55.67438
C         67.36700       63.37229       56.68009
C         68.43571       64.18121       56.25310
C         67.09750       63.26716       58.05592
C         69.21299       64.87601       57.18150
C         67.87468       63.97042       58.98211
C         68.93164       64.77333       58.54512
H         65.37246       62.25857       53.19532
H         64.85557       63.93663       55.67296
H         67.20129       62.05633       54.98731
H         65.90826       61.86160       56.20719
H         68.67748       64.26745       55.20235
H         66.28051       62.65207       58.41235
H         70.03527       65.49203       56.84162
H         67.65803       63.89265       60.03951
H         69.53498       65.31364       59.26257
N         66.24557       65.93884       54.54684
C         65.66896       66.45321       55.78261
C         64.15710       66.50011       55.73408
O         63.54387       66.34520       56.78198
C         66.31689       67.83712       55.92015
C         66.47540       68.27437       54.48191
C         66.94092       66.98165       53.81612
H         65.98474       65.86660       56.67286
H         65.79440       68.54652       56.59710
H         67.35162       67.69052       56.31035
H         65.46310       68.53262       54.10225
H         67.14455       69.14456       54.31166
H         66.67302       67.00887       52.73728
H         68.03514       66.81943       53.93617
N         63.48240       66.63008       54.55783
C         62.03294       66.55532       54.48648
C         61.42491       67.75365       55.21128
O         61.63668       68.85949       54.73266
C         61.48774       66.51179       53.03022
C         61.96963       65.30805       52.19071
C         63.29263       65.47335       51.48108
O         63.75370       64.53138       50.85733
O         63.91807       66.66526       51.41638
H         64.02544       66.73405       53.70064
H         61.74201       65.58927       54.93063
H         61.65239       67.45907       52.47268
H         60.38731       66.38736       53.14540
H         61.23489       65.14078       51.37910
H         61.97122       64.40059       52.82896
N         60.67110       67.68184       56.35092
C         60.34760       66.49222       57.11658
H         59.24588       66.36948       57.15792
H         60.78193       65.55850       56.73084
H         60.72698       66.62102       58.15249
H         60.30039       68.56681       56.73136
Ca        54.01761       59.99693       43.36568
O         51.73033       57.26242       44.41382
H         51.78052       56.71512       45.23695
H         50.76091       57.38791       44.25584
O         55.14629       57.97424       45.75634
H         55.65958       58.24135       46.55963
H         55.38806       57.02526       45.61336
O         52.67533       57.98376       41.37250
H         52.64904       58.26118       40.42253
H         52.21877       57.10545       41.38893
O         54.39169       56.15125       43.18443
H         53.83319       55.51373       43.69610
H         54.83801       55.59559       42.49766

Ca 1.0



