%chk=apoCaM-CA-Ng.loop1.water3.frame1102.chk
%nprocshared=20
%mem=10GB
%nosave
#b3lyp/svp scf=(tight,noincore,xqc) Test 
#IOP(5/87=12) Density=Current Pop=(MK,readradii) iop(6/33=2) iop(6/42=6)

apoCaM-CA-Ng.loop1.water3.frame1102 

   0  1 
C         62.30183       86.05429       66.13121
C         61.92785       84.74187       66.75241
O         61.23577       83.96455       66.11828
H         63.40608       86.12973       66.05379
H         61.86353       86.14843       65.11413
H         61.91874       86.88469       66.76073
N         62.36138       84.43130       68.00574
C         62.07077       83.17185       68.70160
C         60.61599       83.00759       69.16571
O         60.36152       82.08639       69.93379
C         63.06295       82.97257       69.87260
C         62.97010       83.97281       70.99362
O         63.81616       83.86492       72.03522
O         62.14805       84.87526       70.97847
H         62.98975       85.10963       68.46249
H         62.30122       82.32855       68.02421
H         64.09473       83.00681       69.45880
H         62.91517       81.95699       70.30177
N         59.60135       83.79483       68.70594
C         58.19537       83.63885       69.08063
C         57.73602       82.18849       68.92799
O         57.24380       81.66035       69.91382
C         57.28114       84.61361       68.29048
C         57.63062       86.09067       68.56346
C         56.86205       87.03595       67.63420
C         57.30992       88.48822       67.85779
N         56.67248       89.39027       66.90056
H         59.82107       84.51596       68.01623
H         58.08568       83.90319       70.15767
H         56.21865       84.44845       68.57687
H         57.36509       84.41684       67.20442
H         58.70548       86.27474       68.37513
H         57.42370       86.33367       69.62864
H         55.76726       86.94023       67.80204
H         57.08850       86.75688       66.58121
H         58.41396       88.55900       67.72942
H         57.05841       88.80157       68.89520
H         57.00501       90.36556       67.07873
H         56.93831       89.11999       65.92522
H         55.63329       89.35662       67.00738
N         57.90172       81.42180       67.80607
C         58.51666       81.82851       66.54502
C         59.86456       81.12911       66.36462
O         60.27319       80.37448       67.23932
C         57.53203       81.55632       65.38870
C         57.26345       80.09158       65.27868
O         58.28566       79.26129       65.02645
O         56.14781       79.64112       65.48569
H         57.60254       80.43496       67.87851
H         58.73605       82.90644       66.53851
H         57.94159       81.92198       64.42630
H         56.58286       82.10191       65.58685
N         60.64915       81.39850       65.28425
C         62.03274       80.95584       65.19741
C         62.23644       79.49551       64.88015
O         61.30456       78.79432       64.52222
H         60.30951       82.06583       64.57444
H         62.54274       81.20108       66.14785
H         62.55081       81.52407       64.39581
N         63.49802       78.98935       64.98881
C         63.90936       77.65160       64.56322
C         65.18412       77.77047       63.71831
O         65.79038       78.83349       63.73260
C         64.18577       76.79497       65.81743
C         62.93746       76.59888       66.62799
O         61.97280       76.03371       66.13799
O         62.88082       77.03363       67.90120
H         64.21844       79.60252       65.40231
H         63.10659       77.18389       63.95571
H         64.96254       77.28945       66.44208
H         64.56363       75.79228       65.55191
N         65.71488       76.75600       62.97237
C         65.11417       75.46092       62.70475
C         63.93920       75.59225       61.77440
O         64.11811       76.15191       60.70058
H         66.62347       76.93529       62.51464
H         64.87504       74.91230       63.63108
H         65.85887       74.84705       62.15199
N         62.71581       75.07878       62.09600
C         61.57516       75.15343       61.18510
C         60.50080       76.06905       61.72113
O         60.49084       76.39170       62.90043
C         61.02036       73.75586       60.80646
C         60.58720       72.90926       62.00639
O         61.99261       73.04280       60.08708
H         62.59184       74.63341       63.01740
H         61.89669       75.62983       60.23353
H         60.10952       73.89410       60.17347
H         61.80948       73.19425       59.12221
H         60.16631       71.94433       61.65109
H         61.44977       72.67835       62.66633
H         59.80397       73.43165       62.58534
N         59.62890       76.62134       60.82841
C         58.62587       77.63314       61.12127
C         57.49404       77.05780       61.95231
O         57.72819       76.57732       63.04750
C         59.22659       78.91288       61.78801
C         60.53251       79.42478       61.12273
C         58.17372       80.03781       61.84544
C         60.41170       79.78475       59.64210
H         59.72546       76.35687       59.83578
H         58.20746       77.95818       60.14290
H         59.49823       78.67090       62.83201
H         61.32458       78.65345       61.22478
H         60.88799       80.32172       61.67808
H         57.83562       80.32491       60.82852
H         57.28026       79.71672       62.41929
H         58.59653       80.93479       62.34433
H         61.39768       80.14157       59.27579
H         60.12398       78.89528       59.04568
H         59.67351       80.59593       59.48332
N         56.21319       77.15211       61.50665
C         55.05524       76.82900       62.33839
C         54.86732       75.33579       62.64428
O         53.97392       75.02333       63.41939
C         53.77102       77.44002       61.70483
C         53.39003       76.78608       60.36840
O         53.95266       78.81759       61.48528
H         56.06297       77.60751       60.59480
H         55.19953       77.35404       63.30830
H         52.90825       77.29743       62.39432
H         54.03600       79.24954       62.37523
H         53.17999       75.70565       60.50584
H         52.47519       77.27073       59.96579
H         54.19188       76.89853       59.60975
N         55.61252       74.35860       62.04899
C         55.35132       72.92637       62.24092
C         55.67929       72.44021       63.65476
O         56.83841       72.46886       64.04100
C         56.15316       72.10736       61.18992
C         56.01286       70.58529       61.35293
O         55.76672       72.48339       59.89035
H         56.32828       74.63850       61.36258
H         54.27223       72.74279       62.03705
H         57.23407       72.34484       61.30311
H         54.81704       72.21516       59.76935
H         56.59869       70.07226       60.56106
H         56.41568       70.25639       62.33387
H         54.94978       70.27535       61.27619
N         54.69350       71.92474       64.45491
C         54.90398       71.29598       65.76282
C         55.67471       72.18659       66.71325
O         56.76886       71.83759       67.13809
C         55.54580       69.89548       65.65447
C         54.63729       68.88982       64.93052
C         55.13289       67.45410       65.15820
C         54.20498       66.42810       64.49540
N         54.62171       65.06300       64.81787
H         53.72070       71.96315       64.11469
H         53.91009       71.12334       66.23506
H         55.66604       69.52889       66.69957
H         56.55094       69.93206       65.18126
H         54.58648       69.13350       63.84764
H         53.61193       68.95450       65.35774
H         55.14385       67.25644       66.25394
H         56.16619       67.33632       64.76628
H         54.21968       66.57466       63.39308
H         53.16283       66.57757       64.85715
H         54.56055       64.90563       65.85079
H         53.98330       64.38716       64.33955
H         55.60171       64.89537       64.49434
N         55.12938       73.35999       67.10974
C         55.79521       74.29169       68.00641
C         56.13461       75.57051       67.22401
O         57.26919       75.24297       66.47776
C         54.97736       74.50303       69.29046
C         55.00525       73.23371       70.15812
C         54.32911       73.45913       71.47755
O         53.14394       73.74574       71.52380
O         55.03174       73.33996       72.62099
H         54.19916       73.61637       66.74263
H         56.77916       73.90438       68.35976
H         53.92553       74.77157       69.06636
H         55.45356       75.32289       69.87314
H         56.06392       72.95280       70.35603
H         54.51390       72.39039       69.62729
N         55.05259       75.96092       66.30581
C         54.01746       76.79350       66.91797
H         53.04726       76.54711       66.43627
H         53.91581       76.62957       68.00317
H         54.22751       77.87174       66.75680
H         55.44420       76.49627       65.49679
Ca        58.00060       77.16988       65.64587
O         59.69794       74.39775       68.09038
H         59.75753       73.64018       68.72412
H         60.54106       74.35365       67.57440
O         59.42753       74.15301       65.00550
H         59.08430       73.32835       65.43263
H         58.69185       74.44742       64.41174
O         59.57205       77.43036       68.42056
H         59.33868       78.36317       68.65445
H         60.14368       77.51153       67.61652

Ca 1.0



