%chk=apoCaM-CA-Ng.loop2.water4.frame1267.chk
%nprocshared=20
%mem=10GB
%nosave
#b3lyp/svp scf=(tight,noincore,xqc) Test 
#IOP(5/87=12) Density=Current Pop=(MK,readradii) iop(6/33=2) iop(6/42=6)

apoCaM-CA-Ng.loop2.water4.frame1267 

   -2  1 
C         61.01437       58.84794       11.97333
C         59.76338       58.53744       11.19015
O         59.82046       57.61965       10.38505
H         61.84263       59.04631       11.26152
H         60.93517       59.74354       12.61400
H         61.28717       57.97541       12.60350
N         58.59280       59.23289       11.31175
C         58.34094       60.29731       12.28024
C         57.01498       60.99168       12.00908
O         55.99593       60.32539       11.89676
C         58.33762       59.77060       13.74489
C         57.36627       58.65880       14.06547
O         57.27212       58.22324       15.33574
O         56.68228       58.13063       13.20424
H         57.82670       58.97192       10.67082
H         59.13532       61.06930       12.19319
H         58.10796       60.63410       14.40751
H         59.33668       59.40135       14.03705
N         56.94099       62.35409       11.97976
C         55.65797       63.04018       11.89297
C         54.98480       62.81623       10.55746
O         55.63651       62.41491        9.60242
C         55.81507       64.53924       12.15846
H         57.80021       62.90705       12.12205
H         55.00755       62.62435       12.69559
H         56.27010       64.69480       13.16025
H         56.46975       65.00435       11.39096
H         54.82501       65.04286       12.14523
N         53.64125       63.00962       10.45154
C         52.88604       62.77055        9.22941
C         52.05583       63.98504        8.87893
O         51.63998       64.71432        9.76998
C         51.97501       61.54545        9.42615
C         52.80477       60.32617        9.72329
O         52.69204       59.70205       10.91000
O         53.61626       59.92090        8.90562
H         53.11729       63.28077       11.29878
H         53.56544       62.55035        8.37571
H         51.37573       61.35602        8.50908
H         51.27474       61.73402       10.26997
N         51.74375       64.24244        7.57953
C         50.89781       65.34904        7.17394
C         49.50372       65.17796        7.72019
O         49.02283       66.05898        8.41939
H         52.11349       63.62335        6.84223
H         50.83152       65.36899        6.06516
H         51.34418       66.31091        7.51104
N         48.79272       64.04892        7.43406
C         47.42535       63.83202        7.90307
C         47.29871       63.80560        9.42359
O         46.17580       63.84616        9.90830
C         46.81947       62.54420        7.29608
C         47.48228       61.27197        7.78689
N         46.76454       60.33100        8.44419
O         48.67128       61.08172        7.58116
H         49.23546       63.34743        6.82246
H         46.82604       64.69193        7.52861
H         46.89863       62.59020        6.18839
H         45.73679       62.51485        7.54741
H         45.75846       60.45983        8.62288
H         47.21618       59.46449        8.77294
N         48.38803       63.72463       10.24233
C         48.29304       63.75059       11.69229
C         47.81098       65.08412       12.21351
O         47.57034       65.98598       11.42264
H         49.32528       63.61175        9.83694
H         49.30068       63.55964       12.12063
H         47.60561       62.96336       12.02670
N         47.67234       65.32962       13.54657
C         47.94299       64.36327       14.61050
C         46.89273       63.25375       14.63828
O         45.70748       63.55429       14.66417
C         47.97841       65.08883       15.98127
C         48.34222       64.13623       17.12677
O         48.95200       66.10471       15.94371
H         47.39267       66.28655       13.81618
H         48.96333       63.94123       14.47039
H         46.97152       65.51846       16.20409
H         48.47915       66.97660       15.90316
H         48.37962       64.69718       18.08428
H         47.58945       63.32755       17.23100
H         49.33948       63.67941       16.94572
N         47.27960       61.94830       14.74835
C         46.36335       60.82018       14.93588
C         46.51446       60.32880       16.37923
O         47.64486       60.06459       16.76539
C         46.70416       59.68081       13.92434
C         46.47937       60.07413       12.44465
C         45.94790       58.38484       14.24176
C         45.03402       60.42764       12.07459
H         48.29082       61.74863       14.79674
H         45.32792       61.14643       14.76827
H         47.78563       59.43767       14.03237
H         46.80384       59.22972       11.79819
H         47.13190       60.92227       12.19714
H         46.21788       57.59770       13.50749
H         46.26214       58.01409       15.23444
H         44.84863       58.53559       14.24110
H         44.98426       60.67831       10.99524
H         44.35452       59.56933       12.25376
H         44.67276       61.30915       12.64060
N         45.47995       60.19178       17.27273
C         44.05185       60.37614       17.01080
C         43.24095       59.27111       17.69756
O         43.38198       59.09916       18.90009
C         43.62376       61.76425       17.53324
C         42.19320       62.13495       17.21460
O         41.45930       61.38056       16.59467
O         41.72285       63.33450       17.60442
H         45.73910       59.95367       18.24368
H         43.83300       60.35661       15.92843
H         44.27116       62.53243       17.05683
H         43.77579       61.81602       18.63275
N         42.33979       58.52021       16.99349
C         41.44547       57.50700       17.58030
C         40.58457       56.90545       16.46516
O         40.01608       57.68804       15.71301
C         40.51981       58.11632       18.66638
C         39.73145       57.03469       19.37177
C         38.48434       56.61449       18.87838
C         40.26164       56.40815       20.51582
C         37.78334       55.58537       19.51657
C         39.55646       55.38071       21.15068
C         38.31902       54.96874       20.65063
H         42.27270       58.70364       15.98033
H         42.06093       56.72783       18.07334
H         39.84245       58.88825       18.24111
H         41.11395       58.63818       19.44187
H         38.06088       57.07600       17.99583
H         41.22499       56.70736       20.91035
H         36.82637       55.26147       19.12896
H         39.97201       54.89944       22.02719
H         37.77693       54.16973       21.14046
N         40.40288       55.55883       16.27120
C         40.81878       54.48667       17.16765
C         42.30089       54.17436       17.13107
O         42.70868       53.28378       17.86479
C         39.94535       53.30743       16.72475
C         39.84855       53.53253       15.23439
C         39.61432       55.03834       15.17111
H         40.55197       54.70994       18.21992
H         40.29115       52.30386       17.05144
H         38.91871       53.46511       17.13263
H         40.84968       53.30745       14.80116
H         39.08295       52.92892       14.70272
H         39.94867       55.42106       14.18200
H         38.54828       55.30528       15.34552
N         43.17620       54.90407       16.38567
C         44.61977       54.79007       16.52590
C         45.26650       54.64106       15.14930
O         44.93204       55.44263       14.28864
C         45.08937       56.08219       17.22164
C         46.55882       56.05715       17.66081
C         46.78092       55.05250       18.76009
O         46.09681       55.15786       19.91677
O         47.58415       54.14562       18.61706
H         42.82227       55.66059       15.78304
H         44.86662       53.96049       17.20600
H         44.47291       56.25483       18.13147
H         44.89610       56.94008       16.55049
H         46.82066       57.05773       18.06487
H         47.21725       55.84965       16.78997
N         46.20263       53.70247       14.81262
C         46.79534       52.70388       15.67976
H         47.89121       52.88104       15.73012
H         46.41393       52.70564       16.71004
H         46.62205       51.69606       15.25024
H         46.56256       53.71708       13.84501
Ca        54.14507       58.04450       11.40438
O         52.40670       56.67270       13.27544
H         52.70059       57.08255       14.12754
H         51.44866       56.46585       13.41209
O         56.16378       56.94091        9.43286
H         56.46143       57.70941        8.88400
H         56.99557       56.58241        9.83279
O         52.64004       56.05210        9.90596
H         51.85737       56.63492        9.73767
H         52.87311       55.68203        9.01805
O         53.84334       59.95047       13.90212
H         54.64258       60.10876       14.46470
H         53.34619       60.80612       13.92912

Ca 1.0



