%chk=apoCaM-CA-Ng.loop3.water5.frame287.chk
%nprocshared=20
%mem=10GB
%nosave
#b3lyp/svp scf=(tight,noincore,xqc) Test 
#IOP(5/87=12) Density=Current Pop=(MK,readradii) iop(6/33=2) iop(6/42=6)

apoCaM-CA-Ng.loop3.water5.frame287 

   0  1 
C         37.98178       20.92286       27.97124
C         38.03223       19.82880       26.94992
O         36.99446       19.45564       26.42196
H         38.61606       21.77222       27.64468
H         36.94012       21.27919       28.11769
H         38.36248       20.53267       28.93960
N         39.22833       19.24318       26.64865
C         39.41417       18.13679       25.71239
C         38.77741       16.83699       26.21664
O         38.91070       15.83095       25.53515
C         38.92441       18.54967       24.29778
C         39.36877       17.66070       23.16147
O         39.00873       17.92545       22.02553
O         40.19016       16.61164       23.35936
H         40.07452       19.60661       27.11396
H         40.51020       17.95285       25.64565
H         39.32704       19.55830       24.06970
H         37.81786       18.60512       24.28747
N         38.08994       16.76242       27.40095
C         37.48349       15.53457       27.89291
C         35.97322       15.70241       27.92145
O         35.33535       15.32803       28.89698
C         38.03526       15.21429       29.30383
C         39.56803       15.16020       29.39971
C         40.18038       14.00702       28.59488
C         41.70209       13.89151       28.79157
N         42.42598       15.05715       28.27907
H         37.97035       17.58903       27.99659
H         37.70039       14.68937       27.20485
H         37.60568       14.25788       29.67452
H         37.70326       16.02626       29.98945
H         39.83110       15.01972       30.47097
H         39.98465       16.13538       29.07209
H         39.96093       14.12586       27.51362
H         39.72046       13.05709       28.94422
H         42.05041       12.98751       28.24556
H         41.93485       13.74884       29.87059
H         42.19359       15.91403       28.82890
H         43.45287       14.88395       28.37218
H         42.19981       15.20705       27.26904
N         35.33332       16.26479       26.85682
C         33.88605       16.42064       26.77350
C         33.37855       15.58360       25.60990
O         34.18658       15.09362       24.82994
C         33.55904       17.92520       26.64677
C         32.09246       18.22147       26.54277
O         31.65717       18.79197       25.55689
O         31.25410       17.87912       27.53933
H         35.89497       16.59296       26.05520
H         33.40472       16.02513       27.69443
H         34.07911       18.33843       25.75543
H         33.94991       18.45603       27.54335
N         32.05165       15.29495       25.47467
C         31.57022       14.38981       24.44317
C         31.77192       14.92184       23.04242
O         31.72443       14.12998       22.11240
H         31.37535       15.65509       26.16234
H         30.49278       14.16419       24.58663
H         32.13030       13.43448       24.55011
N         31.96872       16.25004       22.80967
C         32.24279       16.80773       21.49102
C         33.56172       17.56392       21.53994
O         34.44921       17.25040       20.75897
C         31.03419       17.60740       20.95616
C         30.64105       18.85865       21.69720
N         30.54539       20.03646       21.03535
O         30.35209       18.80524       22.88227
H         31.91503       16.89740       23.60649
H         32.35930       15.98724       20.74754
H         30.15577       16.92499       20.96403
H         31.23713       17.86328       19.89355
H         30.75087       20.09775       20.02728
H         30.23287       20.88813       21.52014
N         33.79457       18.49898       22.50611
C         35.08201       19.13809       22.72653
C         34.94992       20.63452       22.78213
O         33.87413       21.15999       22.53078
H         33.05198       18.72139       23.18313
H         35.83587       18.85582       21.96057
H         35.45478       18.80116       23.71659
N         36.02253       21.39604       23.13849
C         35.93681       22.84916       23.25305
C         34.95783       23.25487       24.33909
O         34.56206       22.42858       25.15039
C         37.32146       23.46021       23.55475
C         38.29310       23.18115       22.43556
C         39.40001       22.34267       22.64310
C         38.09466       23.75619       21.16916
C         40.28530       22.07097       21.59586
C         38.98620       23.49213       20.12638
C         40.08316       22.64395       20.33550
O         40.94678       22.37413       19.33612
H         36.91912       20.92228       23.33037
H         35.55827       23.24291       22.28384
H         37.68860       23.02665       24.51240
H         37.25347       24.56177       23.69074
H         39.57092       21.88997       23.61091
H         37.25219       24.41307       20.99097
H         41.12854       21.41323       21.76456
H         38.82151       23.94541       19.15700
H         40.84215       22.75096       18.45073
N         34.48130       24.52911       24.35851
C         33.48739       25.00938       25.31045
C         32.16690       25.20672       24.58403
O         31.15262       24.76195       25.10158
C         33.96294       26.30758       26.02192
C         35.38102       26.10865       26.62054
C         32.94922       26.69786       27.12284
C         35.95054       27.36088       27.29024
H         34.80992       25.17833       23.62843
H         33.32059       24.25105       26.10967
H         34.01519       27.12684       25.27085
H         36.08199       25.84389       25.80025
H         35.37664       25.27353       27.35468
H         33.22141       27.65634       27.60651
H         31.93168       26.83716       26.70557
H         32.89957       25.90614       27.90249
H         35.96137       28.21028       26.57473
H         35.36713       27.64075       28.19024
H         36.99189       27.15990       27.61873
N         32.10187       25.79858       23.35170
C         30.84804       25.91920       22.61409
C         29.94169       26.99136       23.19252
O         28.80742       27.07802       22.74407
C         31.10492       26.19129       21.12477
O         31.85140       25.13515       20.58131
H         32.97069       26.10628       22.89286
H         30.31617       24.94172       22.66823
H         31.65762       27.14679       20.99600
H         30.12093       26.25910       20.60293
H         31.70647       25.16038       19.59971
N         30.34838       27.81921       24.20618
C         29.49301       28.80709       24.86003
C         28.32173       28.17141       25.60603
O         27.52957       28.91840       26.16811
C         29.00439       29.86037       23.85020
H         31.31473       27.76056       24.55328
H         30.10663       29.34792       25.61508
H         28.44579       30.66394       24.37609
H         29.87089       30.32548       23.33407
H         28.32643       29.42671       23.08799
N         28.13432       26.81791       25.65957
C         26.98154       26.17764       26.27184
C         27.41228       25.21953       27.37320
O         28.59882       25.12784       27.66646
C         26.17983       25.48540       25.16490
H         28.81363       26.18060       25.22518
H         26.31026       26.93165       26.73776
H         26.78815       24.73122       24.63322
H         25.26826       25.00048       25.56612
H         25.86401       26.24488       24.41744
N         26.47395       24.53326       28.08940
C         26.75363       23.72507       29.27531
C         27.29084       24.55902       30.44255
O         27.53757       23.97423       31.48874
C         27.64787       22.47820       28.99122
C         26.92355       21.40354       28.15403
C         27.58773       20.04926       28.28944
O         28.73851       19.73011       27.66612
O         27.05600       19.19899       28.98600
H         25.48284       24.63655       27.82377
H         25.78485       23.32989       29.65549
H         27.83381       22.00310       29.98048
H         28.63853       22.73759       28.56290
H         26.79186       21.69913       27.09198
H         25.90965       21.28761       28.59624
N         27.44237       25.91697       30.37885
C         27.91153       26.71985       31.48992
H         28.83556       27.25607       31.18971
H         27.13282       27.46621       31.75365
H         28.13357       26.11384       32.39264
H         27.20020       26.43892       29.52869
Ca        29.64373       20.78648       25.90774
O         28.30356       17.86592       25.11411
H         27.41994       17.81304       24.67049
H         28.14064       17.53238       26.03198
O         27.87243       20.65995       23.27848
H         27.48984       20.11844       22.54326
H         28.00931       21.55628       22.88096
O         32.17275       21.75167       27.00187
H         32.64401       21.09307       27.57097
H         31.50990       22.17403       27.60429
O         28.52520       23.19173       25.25214
H         29.14015       23.27025       24.48217
H         29.10871       23.26537       26.04732
O         31.32411       21.97651       23.62953
H         32.07510       22.35188       24.15102
H         31.24202       22.57974       22.84906

Ca 1.0



