%chk=apoCaM-CA-Ng.loop1.water3.frame32.chk
%nprocshared=20
%mem=10GB
%nosave
#b3lyp/svp scf=(tight,noincore,xqc) Test 
#IOP(5/87=12) Density=Current Pop=(MK,readradii) iop(6/33=2) iop(6/42=6)

apoCaM-CA-Ng.loop1.water3.frame32 

   0  1 
C         73.58579       50.72042       51.61461
C         72.61403       49.57858       51.66486
O         71.83758       49.49137       52.60448
H         74.62306       50.32616       51.56854
H         73.39092       51.33343       50.70947
H         73.48785       51.36564       52.51321
N         72.62276       48.64708       50.67370
C         71.72882       47.49552       50.62537
C         72.50669       46.19204       50.75885
O         71.94861       45.15498       50.43035
C         70.89095       47.50964       49.31810
C         71.69961       47.34400       48.05573
O         72.56870       48.29576       47.66900
O         71.53960       46.35783       47.35321
H         73.32427       48.75072       49.92630
H         70.98968       47.52502       51.45299
H         70.30369       48.44985       49.24750
H         70.15879       46.67305       49.37498
N         73.78193       46.15254       51.25702
C         74.60530       44.94606       51.23141
C         74.80818       44.32122       52.60701
O         75.28390       45.03618       53.47870
C         76.02435       45.28422       50.71528
C         76.12221       45.92325       49.32897
C         75.59545       45.01219       48.21473
C         75.97112       45.52721       46.81506
N         75.41277       46.84827       46.52839
H         74.21152       47.01530       51.62310
H         74.15466       44.23091       50.54906
H         76.63213       44.35102       50.71003
H         76.50636       45.99195       51.42755
H         77.20442       46.11094       49.14966
H         75.59368       46.89993       49.32431
H         74.49309       44.90480       48.30318
H         76.05738       44.00640       48.32404
H         75.58999       44.80083       46.06444
H         77.07953       45.56636       46.72031
H         75.81187       47.56982       47.17031
H         75.66267       47.11510       45.54913
H         74.37332       46.81932       46.61571
N         74.60613       42.99198       52.90333
C         73.95389       41.95014       52.10101
C         74.48484       41.80071       50.67953
O         73.74727       42.10755       49.75087
C         72.41545       42.12316       52.18273
C         71.97934       42.05074       53.62878
O         71.29862       43.05289       54.22237
O         72.27538       41.07085       54.29500
H         74.90450       42.68521       53.84260
H         74.12948       40.96511       52.58653
H         71.92577       41.29268       51.62611
H         72.09545       43.08078       51.73367
N         75.70199       41.26753       50.37015
C         76.62236       40.63058       51.31561
C         77.76575       39.92413       50.57917
O         77.89810       40.11098       49.37710
H         75.91560       41.23311       49.36190
H         76.05475       39.83911       51.84681
H         77.01036       41.36019       52.05758
N         78.61284       39.02650       51.16340
C         78.65010       38.61401       52.56056
C         78.13692       37.19160       52.67067
O         78.59695       36.33247       51.93001
C         80.11211       38.66492       53.04769
C         80.25628       38.16433       54.45971
O         79.61440       38.78300       55.46800
O         80.94847       37.18591       54.69493
H         79.27801       38.54854       50.53284
H         78.03073       39.28154       53.19757
H         80.48984       39.70661       52.98939
H         80.74109       38.03231       52.37907
N         77.16581       36.87733       53.57501
C         76.56436       35.55686       53.64442
C         75.27017       35.51202       52.86136
O         74.70935       34.43219       52.73388
H         76.77650       37.61795       54.17849
H         76.39243       35.27284       54.70595
H         77.25324       34.79688       53.21776
N         74.73193       36.63985       52.30907
C         73.51269       36.66837       51.51649
C         73.83735       37.30585       50.17714
O         74.34332       38.42044       50.15268
C         72.42228       37.44780       52.27307
C         72.08898       36.74935       53.60116
O         71.26674       37.50647       51.47849
H         75.18722       37.55084       52.46443
H         73.12533       35.63825       51.34796
H         72.79601       38.47907       52.47746
H         70.70144       38.23241       51.85051
H         71.72870       35.71400       53.41374
H         72.98191       36.69934       54.26014
H         71.29675       37.30877       54.13933
N         73.61667       36.62390       49.02081
C         74.07478       37.07779       47.70911
C         72.93491       37.28038       46.70922
O         73.23313       37.56076       45.55873
C         75.13493       36.06465       47.16235
C         74.54114       34.64085       46.95670
C         76.36246       36.04070       48.09644
C         75.50413       33.65768       46.29054
H         73.15704       35.70401       49.08372
H         74.58396       38.06477       47.78694
H         75.48303       36.44173       46.17490
H         73.64665       34.71385       46.30208
H         74.22915       34.19752       47.92469
H         76.09463       35.64657       49.10005
H         77.17722       35.41728       47.67757
H         76.77171       37.06663       48.21652
H         74.98688       32.68591       46.14134
H         75.82795       34.04353       45.30157
H         76.39221       33.46588       46.92571
N         71.61916       37.14299       47.04931
C         70.53754       37.21407       46.06117
C         70.39745       38.55839       45.34059
O         69.90227       38.54895       44.22248
C         69.17575       36.78975       46.67088
C         68.67084       37.74258       47.76221
O         69.28173       35.49930       47.21705
H         71.38329       36.90483       48.02159
H         70.77465       36.45635       45.27995
H         68.40239       36.79222       45.86519
H         69.09184       34.85510       46.48572
H         68.52756       38.76583       47.35932
H         67.69063       37.38311       48.14111
H         69.37453       37.79007       48.61856
N         70.73248       39.74781       45.92755
C         70.55673       41.07508       45.30921
C         69.07816       41.38219       45.01636
O         68.24276       40.50252       45.17281
C         71.41240       41.22550       44.01464
C         72.86695       40.79262       44.21752
O         71.40151       42.56507       43.59349
H         71.12709       39.72494       46.88032
H         70.91867       41.82345       46.05068
H         70.96831       40.58373       43.21965
H         71.68287       42.57642       42.64135
H         73.35132       41.38599       45.02017
H         72.91315       39.71992       44.47329
H         73.43380       40.92774       43.27148
N         68.67594       42.62486       44.60188
C         67.29056       42.93201       44.23337
C         66.51488       43.57441       45.37147
O         65.32387       43.80542       45.20943
C         67.24834       43.90447       43.03190
C         68.03769       43.47481       41.78977
C         67.54063       42.15693       41.18302
C         68.30130       41.77405       39.90150
N         68.06212       42.71529       38.80370
H         69.36412       43.39125       44.57026
H         66.75782       41.99206       43.97172
H         67.66790       44.88297       43.35848
H         66.18864       44.07513       42.73705
H         69.11686       43.38799       42.03841
H         67.91912       44.29594       41.05316
H         66.45380       42.22398       40.95883
H         67.69787       41.34486       41.92423
H         67.95157       40.76721       39.58464
H         69.39188       41.70744       40.11269
H         68.45519       43.65790       39.02026
H         68.53879       42.36056       37.94370
H         67.03675       42.79132       38.61114
N         67.11477       43.89946       46.54695
C         66.41501       44.53314       47.65668
C         65.88159       45.89345       47.25298
O         66.65651       46.75686       46.86457
C         67.38230       44.60219       48.84433
C         66.84425       45.29174       50.10149
C         67.73712       44.88569       51.23377
O         67.73582       43.71614       51.58683
O         68.60931       45.73084       51.81106
H         68.11555       43.68580       46.66698
H         65.56673       43.88160       47.96588
H         68.32974       45.11124       48.55525
H         67.62273       43.53869       49.07292
H         65.81137       44.96010       50.34424
H         66.84246       46.39231       49.94201
N         64.54319       46.14266       47.31657
C         63.96771       47.41141       46.92935
H         62.86540       47.38377       47.07098
H         64.38536       48.22693       47.55610
H         64.18066       47.61337       45.85836
H         63.90298       45.40559       47.64981
Ca        69.92460       44.51341       53.18518
O         69.20775       47.66783       54.06613
H         69.30849       48.18941       54.90107
H         70.09588       47.72336       53.63440
O         72.03149       46.19923       54.96730
H         72.47314       45.58893       54.32491
H         72.12970       45.75133       55.84487
O         68.17679       42.53785       54.79017
H         67.70496       42.14278       54.01465
H         68.90002       41.89316       54.99409

Ca 1.0



