%chk=apoCaM-CA-Ng.loop4.water5.frame1029.chk
%nprocshared=20
%mem=10GB
%nosave
#b3lyp/svp scf=(tight,noincore,xqc) Test 
#IOP(5/87=12) Density=Current Pop=(MK,readradii) iop(6/33=2) iop(6/42=6)

apoCaM-CA-Ng.loop4.water5.frame1029 

   -3  1 
C         14.55600       62.03579       36.91899
C         15.48375       62.41883       35.80016
O         16.67701       62.48510       36.04214
H         14.00148       61.10993       36.68047
H         15.12984       61.86471       37.85527
H         13.84425       62.86826       37.10390
N         15.04091       62.72401       34.54621
C         13.65293       62.58121       34.11931
C         13.31971       61.10561       34.02125
O         12.41921       60.64431       34.70755
C         13.41321       63.25228       32.74940
C         13.69077       64.72500       32.80473
O         14.52872       65.21884       32.06767
O         13.00611       65.50876       33.65975
H         15.73570       63.06489       33.86435
H         12.98446       63.08831       34.85074
H         12.34983       63.11572       32.45720
H         14.04892       62.79050       31.96375
N         14.04215       60.30599       33.18432
C         13.86272       58.86547       33.05896
C         13.40241       58.51178       31.65098
O         12.39482       57.83238       31.51353
C         15.16368       58.10104       33.49468
C         16.40625       58.36976       32.59407
C         15.46626       58.42667       34.97048
C         17.65722       57.58196       32.98495
H         14.78409       60.74263       32.62361
H         13.06314       58.51459       33.75052
H         14.93827       57.01291       33.43414
H         16.66487       59.44922       32.59240
H         16.18480       58.04253       31.56186
H         16.29425       57.80226       35.36055
H         15.73890       59.49640       35.09158
H         14.57923       58.20929       35.60204
H         17.44392       56.49231       32.97575
H         18.46226       57.78874       32.24735
H         18.03688       57.88440       33.98081
N         14.09353       58.94331       30.55940
C         13.78928       58.57798       29.18167
C         13.50920       59.84693       28.38146
O         13.55202       60.92629       28.95892
C         15.02303       57.80065       28.65843
C         14.84850       57.18131       27.30308
O         15.59613       57.48580       26.38721
O         13.87723       56.27134       27.09651
H         14.90708       59.55756       30.69953
H         12.89854       57.91354       29.13464
H         15.23524       56.96436       29.35980
H         15.90706       58.47713       28.65750
N         13.24870       59.80796       27.04212
C         13.09661       61.00965       26.24120
C         14.30890       61.16249       25.36016
O         15.41292       61.20044       25.88652
H         13.21362       58.90821       26.54642
H         13.04281       61.91899       26.87513
H         12.14920       60.95666       25.66126
N         14.18868       61.28851       24.01149
C         15.34847       61.44752       23.13586
C         16.17512       60.16882       23.11741
O         15.58285       59.09891       23.15384
C         14.90529       61.77908       21.69841
C         14.13106       63.06759       21.64531
O         14.64651       64.11234       22.01169
O         12.86482       63.07501       21.18794
H         13.24169       61.29636       23.60108
H         15.95550       62.30603       23.49610
H         14.28293       60.95062       21.29563
H         15.79940       61.88986       21.04770
N         17.53539       60.15724       23.00053
C         18.35299       61.36103       22.89111
C         19.83471       61.05562       22.67986
O         20.18769       59.88880       22.58213
H         17.98591       59.23042       22.96679
H         18.23117       61.94756       23.82209
H         17.98870       61.94145       22.02669
N         20.80592       62.01843       22.60462
C         20.64092       63.46523       22.71518
C         20.08411       63.82403       24.08066
O         19.04097       64.44998       24.18513
C         19.94398       64.04443       21.45040
C         20.01775       65.57885       21.28687
C         19.03529       66.33119       22.14469
N         19.45229       67.25806       23.03785
O         17.83944       66.11178       22.01648
H         21.77728       61.68968       22.48011
H         21.66273       63.90910       22.68591
H         18.89893       63.71606       21.32715
H         20.51864       63.63305       20.59025
H         19.75613       65.82449       20.23454
H         21.06133       65.92391       21.45629
H         20.45368       67.46543       23.15964
H         18.76643       67.77265       23.61055
N         20.78446       63.45248       25.19254
C         20.41627       63.82928       26.55299
C         20.17538       62.59449       27.41524
O         21.01215       61.70421       27.46466
C         21.48573       64.77208       27.17889
C         21.61117       66.06779       26.36490
C         22.87127       64.13484       27.33142
H         21.65228       62.91107       25.06187
H         19.47838       64.42709       26.54580
H         21.13160       65.04997       28.19752
H         22.32118       66.76298       26.86188
H         21.98342       65.85737       25.33937
H         20.62605       66.57496       26.29240
H         23.56951       64.84393       27.82422
H         22.79972       63.25182       27.98040
H         23.30262       63.83947       26.35318
N         19.02879       62.49857       28.14246
C         18.67960       61.36953       29.00267
C         19.59725       61.14514       30.22006
O         19.29445       60.22986       30.97587
C         17.21682       61.51601       29.51515
C         17.02711       62.52829       30.63454
N         17.14331       63.86539       30.45038
O         16.75100       62.11147       31.74759
H         18.34247       63.25134       28.02361
H         18.70251       60.45633       28.36754
H         16.93369       60.52270       29.92745
H         16.51365       61.71913       28.67852
H         17.33968       64.28217       29.53516
H         17.00901       64.50769       31.24543
N         20.68817       61.91937       30.51519
C         21.39734       61.81620       31.79722
C         21.72798       63.20290       32.35431
O         21.37006       64.20061       31.74161
C         22.63842       60.89042       31.73142
C         23.83803       61.49346       31.04871
C         24.90453       61.99297       31.81990
C         23.91582       61.55535       29.65439
C         26.01508       62.57076       31.20399
C         25.03795       62.12037       29.03654
C         26.08646       62.63885       29.81082
O         27.16427       63.20154       29.22927
H         20.97418       62.66398       29.86667
H         20.72599       61.33046       32.54138
H         22.39097       59.89616       31.30080
H         22.92538       60.67436       32.78266
H         24.87228       61.95271       32.90148
H         23.11263       61.15719       29.04922
H         26.81886       62.96656       31.81243
H         25.08873       62.15987       27.95628
H         27.25005       63.27522       28.26839
N         22.42436       63.33453       33.51956
C         22.75168       64.61250       34.13788
C         22.10621       64.59875       35.49972
O         22.76807       64.48789       36.52319
C         24.27691       64.82593       34.15720
C         24.63589       66.23072       34.68740
C         26.10285       66.54997       34.59911
O         26.53845       67.75391       35.01643
O         26.90287       65.74662       34.14528
H         22.73022       62.48632       34.01907
H         22.32923       65.46275       33.55667
H         24.63558       64.75498       33.10644
H         24.78115       64.03656       34.75650
H         24.32298       66.32925       35.74746
H         24.09196       66.99515       34.09054
N         20.75480       64.65140       35.54849
C         19.97308       64.45469       36.75580
C         20.10413       63.00154       37.16581
O         20.50406       62.73444       38.29061
C         18.51536       64.87096       36.47112
C         18.45636       66.39668       36.27316
C         17.13344       66.87369       35.76632
O         16.47114       67.66393       36.41885
O         16.72731       66.51872       34.53337
H         20.25410       64.79241       34.65573
H         20.34290       65.10557       37.58108
H         17.85079       64.60010       37.32077
H         18.16421       64.35218       35.55395
H         19.20732       66.72684       35.52497
H         18.69894       66.88831       37.24119
N         19.84739       62.00429       36.27310
C         20.04961       60.60846       36.59686
H         21.11039       60.43726       36.88361
H         19.38595       60.30849       37.43403
H         19.82294       59.97701       35.71105
H         19.53690       62.24176       35.31873
Ca        15.02229       67.64890       33.58814
O         13.59179       69.23707       35.61299
H         13.77147       70.13593       35.98641
H         13.75009       68.61598       36.36773
O         12.61271       67.92887       31.75681
H         11.98648       68.64111       32.04076
H         12.06664       67.32420       31.19446
O         16.38554       68.19342       30.77525
H         17.23011       67.93001       30.33068
H         15.68453       68.03212       30.09483
O         14.41305       70.55303       32.63472
H         13.51448       70.96767       32.66485
H         14.63752       70.51479       31.67110
O         17.63075       69.62917       33.50937
H         17.44252       70.28108       32.78817
H         17.31859       70.07626       34.33591

Ca 1.0



