%chk=apoCaM-CA-Ng.loop1.water6.frame592.chk
%nprocshared=20
%mem=10GB
%nosave
#b3lyp/svp scf=(tight,noincore,xqc) Test 
#IOP(5/87=12) Density=Current Pop=(MK,readradii) iop(6/33=2) iop(6/42=6)

apoCaM-CA-Ng.loop1.water6.frame592 

   0  1 
C         70.26575      110.00214      106.94326
C         69.69368      111.38168      106.75199
O         69.01793      111.87081      107.64547
H         70.93732      109.99187      107.82731
H         69.44509      109.27169      107.10379
H         70.85213      109.67602      106.05753
N         69.93242      112.07380      105.60233
C         69.42290      113.42061      105.34474
C         67.90675      113.45650      105.35673
O         67.29258      112.62517      104.70078
C         69.94583      113.97989      104.00288
C         69.44594      113.24822      102.78119
O         69.74820      111.95184      102.58019
O         68.76737      113.83856      101.95581
H         70.52584      111.62477      104.88985
H         69.81629      114.10023      106.13313
H         71.05643      113.96793      104.00700
H         69.62142      115.04278      103.93589
N         67.23858      114.41790      106.06122
C         65.78600      114.46988      106.13984
C         65.22430      115.74750      105.52486
O         65.70351      116.83069      105.82959
C         65.34028      114.34425      107.60773
C         63.85152      113.99727      107.64183
C         63.27986      113.83522      109.04839
C         61.93171      113.09809      108.99251
N         60.97439      113.73494      108.08928
H         67.77829      115.13113      106.57497
H         65.35585      113.59775      105.59942
H         65.57051      115.27369      108.17392
H         65.88223      113.49715      108.08325
H         63.73569      113.03011      107.10267
H         63.26810      114.78037      107.11445
H         63.18143      114.83573      109.52465
H         63.95885      113.21233      109.66956
H         61.50375      113.03334      110.01728
H         62.11175      112.05919      108.63538
H         60.72374      114.68493      108.42161
H         61.31824      113.77116      107.10526
H         60.12426      113.15227      108.06549
N         64.12012      115.67983      104.72523
C         63.44042      116.84128      104.15304
C         62.07998      116.40706      103.60270
O         62.06005      115.52914      102.75094
C         64.28835      117.46249      103.01422
C         63.49347      118.52710      102.24861
O         63.18066      119.63861      103.03558
O         64.16882      118.98625      101.11427
H         63.70129      114.74889      104.57337
H         63.28759      117.60323      104.94276
H         64.53949      116.66096      102.28549
H         65.23888      117.88608      103.40397
N         60.89332      116.98204      103.97093
C         60.73154      118.08206      104.91167
C         60.91876      117.68678      106.35941
O         61.17986      116.53142      106.65748
H         60.04043      116.66247      103.48677
H         59.69773      118.47456      104.82517
H         61.40882      118.91529      104.64044
N         60.79796      118.64524      107.32196
C         60.99353      118.39953      108.74764
C         59.95694      117.45664      109.37143
O         60.37913      116.44748      109.91602
C         61.15596      119.72402      109.54684
C         60.08732      120.78759      109.44243
O         59.13361      120.68185      108.69148
O         60.22917      121.91853      110.15902
H         60.62570      119.61099      107.00524
H         61.98495      117.90228      108.86653
H         62.09627      120.21036      109.20624
H         61.28975      119.46136      110.61902
N         58.61725      117.72459      109.41942
C         57.68328      116.87135      110.14971
C         57.30751      115.61202      109.40162
O         57.63452      115.49122      108.23237
H         58.24800      118.58878      109.01332
H         56.73360      117.42186      110.32275
H         58.11363      116.63284      111.14609
N         56.59116      114.62989      110.03388
C         56.05700      113.43283      109.37044
C         57.07931      112.81362      108.43202
O         58.14829      112.42877      108.86846
C         55.47278      112.41688      110.38726
C         56.50621      111.87689      111.38526
O         54.43309      113.02173      111.11228
H         56.39370      114.76235      111.03698
H         55.20412      113.77464      108.74393
H         55.06881      111.53733      109.83146
H         53.63347      113.02333      110.52325
H         57.31491      111.31970      110.87302
H         56.95465      112.69905      111.98101
H         56.01161      111.17149      112.08555
N         56.81528      112.80452      107.09462
C         57.79141      112.57190      106.03065
C         57.91015      113.86200      105.21544
O         59.01603      114.32372      104.97412
C         57.37443      111.39875      105.09594
C         57.12489      110.07053      105.85326
C         58.42543      111.19301      103.97901
C         58.32242      109.53139      106.64217
H         55.86341      113.06923      106.81427
H         58.78857      112.32337      106.44695
H         56.41432      111.66227      104.59852
H         56.81919      109.29722      105.11363
H         56.27750      110.20815      106.55742
H         59.42608      110.96207      104.40115
H         58.12235      110.36593      103.30318
H         58.52903      112.10433      103.35324
H         58.03848      108.57069      107.12044
H         59.19246      109.33879      105.98270
H         58.61804      110.23548      107.44437
N         56.78270      114.50196      104.78518
C         56.73617      115.69492      103.94760
C         55.68180      115.47904      102.86285
O         55.07022      114.41874      102.82391
C         56.45406      116.96544      104.80816
C         55.21884      116.85777      105.70727
O         57.57050      117.31078      105.58781
H         55.86791      114.13031      105.06639
H         57.71052      115.85731      103.43818
H         56.29757      117.82040      104.11907
H         57.88955      116.50220      106.05616
H         55.35235      116.05378      106.46201
H         55.07541      117.81623      106.25135
H         54.31133      116.65197      105.10404
N         55.42840      116.43724      101.92864
C         54.48673      116.23694      100.83414
C         55.27248      116.26710       99.54409
O         55.36244      115.23705       98.88910
C         53.32152      117.25847      100.91271
C         52.35506      117.12096       99.73102
O         53.80608      118.57552      100.97061
H         55.95187      117.32412      101.96366
H         54.01824      115.22883      100.89945
H         52.76674      117.03015      101.85460
H         53.15452      119.10637      101.49954
H         51.94442      116.09055       99.68304
H         51.51177      117.83383       99.84917
H         52.87136      117.35055       98.77403
N         55.87970      117.40830       99.12147
C         56.71236      117.47215       97.93230
C         57.98979      118.23704       98.21345
O         58.01602      119.07875       99.10237
C         55.94421      118.10399       96.75648
C         55.38426      119.50505       97.07164
C         54.61305      120.12046       95.89583
C         55.51968      120.47950       94.70758
N         54.74733      121.11006       93.63846
H         55.74093      118.27494       99.65713
H         56.99419      116.44402       97.61167
H         55.09029      117.43938       96.49823
H         56.62767      118.13693       95.88313
H         56.19762      120.19745       97.37658
H         54.67001      119.41251       97.91788
H         54.13634      121.05713       96.25841
H         53.80726      119.42527       95.57260
H         56.01337      119.57231       94.30131
H         56.30920      121.18438       95.05222
H         55.39201      121.36526       92.85591
H         54.02479      120.44428       93.27976
H         54.28355      121.97857       93.99148
N         59.09071      118.01156       97.44789
C         60.32437      118.77504       97.58551
C         60.87336      118.71927       99.01036
O         61.05080      119.78798       99.57692
C         61.37731      118.35783       96.53390
C         60.89016      118.61549       95.09601
C         61.94951      118.25067       94.09789
O         62.40027      116.98359       94.02243
O         62.39723      119.09664       93.34056
H         59.03366      117.27383       96.73016
H         60.09260      119.84413       97.37039
H         61.64266      117.29033       96.63571
H         62.29492      118.96502       96.69987
H         60.62749      119.69059       94.98439
H         59.98713      118.01324       94.86738
N         61.14129      117.57393       99.70357
C         60.94379      116.22822       99.21461
H         59.88156      116.06235       98.94626
H         61.60642      116.01713       98.35777
H         61.20670      115.50442      100.01524
H         61.48269      117.66752      100.67155
Ca        63.54259      121.15304      101.38625
O         64.32482      123.94613      101.33978
H         63.80282      124.72317      101.66095
H         65.03533      124.33531      100.77120
O         66.14249      121.28370      102.71838
H         66.30120      120.36311      102.39018
H         66.20344      121.84851      101.90712
O         61.82729      123.34813       99.33734
H         61.12895      123.86873       99.80832
H         62.43297      124.03317       98.95708
O         60.04414      120.83229      102.08767
H         59.15187      121.08357      101.74006
H         59.88953      119.99556      102.59324
O         64.73934      121.70335       98.65059
H         65.54652      121.30578       99.06425
H         64.98239      122.64981       98.49124
O         61.78081      122.90953      103.31882
H         61.12163      122.67503      104.01953
H         62.44515      123.47872      103.78188

Ca 1.0



