%chk=apoCaM-CA-Ng.loop3.water3.frame627.chk
%nprocshared=20
%mem=10GB
%nosave
#b3lyp/svp scf=(tight,noincore,xqc) Test 
#IOP(5/87=12) Density=Current Pop=(MK,readradii) iop(6/33=2) iop(6/42=6)

apoCaM-CA-Ng.loop3.water3.frame627 

   0  1 
C         91.81985       48.74493      -16.68402
C         91.93530       49.23990      -18.09054
O         91.51394       50.35508      -18.36138
H         91.43838       49.55325      -16.02268
H         91.13754       47.87346      -16.63341
H         92.82921       48.45268      -16.32418
N         92.52593       48.47047      -19.04672
C         92.85615       49.00459      -20.35807
C         91.81436       48.60645      -21.38813
O         91.66978       47.43373      -21.70379
C         94.28971       48.58882      -20.73294
C         94.84801       49.28269      -21.93848
O         96.10499       49.00419      -22.31208
O         94.20141       50.10267      -22.56822
H         92.87523       47.53427      -18.78772
H         92.88116       50.11255      -20.28752
H         94.33394       47.48958      -20.89095
H         94.96252       48.84860      -19.88772
N         91.03469       49.57813      -21.93707
C         90.02464       49.37431      -22.96740
C         90.66809       48.93759      -24.26760
O         90.19567       47.99502      -24.88692
C         89.23015       50.69336      -23.14824
C         88.08048       50.56125      -24.15983
C         87.04636       51.69476      -24.05404
C         87.55987       53.07874      -24.47286
N         86.47782       54.06359      -24.39153
H         91.16300       50.53858      -21.59007
H         89.29179       48.60711      -22.62986
H         89.89806       51.53630      -23.43384
H         88.78875       50.92237      -22.15283
H         87.52922       49.62497      -23.93056
H         88.47922       50.48512      -25.19568
H         86.66580       51.74015      -23.00909
H         86.19446       51.43134      -24.71629
H         87.93021       53.03223      -25.52062
H         88.39663       53.39836      -23.81451
H         85.69412       53.79030      -25.02918
H         86.11938       54.12765      -23.41058
H         86.83501       55.00145      -24.68350
N         91.77353       49.58490      -24.72380
C         92.44464       49.26814      -25.97832
C         93.55151       48.22842      -25.80704
O         94.12729       47.83154      -26.80955
C         92.90670       50.59426      -26.63103
C         93.87172       51.38613      -25.78153
O         93.48622       52.55335      -25.23195
O         95.00467       50.98722      -25.58944
H         92.17489       50.32252      -24.12890
H         91.71017       48.80847      -26.67746
H         91.99551       51.21634      -26.77120
H         93.35352       50.42099      -27.63307
N         93.87577       47.70790      -24.58525
C         94.86309       46.65687      -24.35323
C         96.30856       47.00508      -24.67997
O         97.15631       46.15170      -24.46127
H         93.35301       48.02132      -23.75988
H         94.57473       45.75532      -24.93528
H         94.83112       46.38572      -23.27506
N         96.67166       48.19458      -25.23435
C         98.02599       48.51743      -25.67384
C         98.48113       49.86949      -25.08517
O         98.19267       49.81510      -23.73313
C         98.00581       48.49646      -27.21333
C         97.94637       47.05545      -27.66126
N         96.82936       46.52677      -28.20771
O         98.92594       46.34401      -27.49168
H         95.95198       48.88780      -25.43300
H         98.75659       47.76534      -25.30108
H         98.90192       48.94894      -27.67866
H         97.12337       49.07913      -27.56567
H         95.97992       47.09191      -28.33095
H         96.80720       45.53153      -28.47660
N         99.93999       50.02987      -25.22605
C        100.46746       51.37120      -24.91506
C        100.34075       51.74611      -23.45372
O        100.67671       50.93464      -22.60198
H        100.24212       49.79951      -26.19675
H        100.02316       52.14410      -25.58047
H        101.55798       51.34043      -25.13047
N         99.92320       52.99525      -23.09007
C         99.78073       53.40239      -21.69499
C         98.59306       52.62689      -21.04297
O         97.41407       53.05702      -21.64531
C         99.52910       54.93308      -21.57666
C        100.63572       55.82787      -22.09355
C        100.36999       56.75173      -23.12140
C        101.92042       55.79712      -21.52252
C        101.36461       57.62930      -23.56414
C        102.91513       56.67714      -21.96861
C        102.63788       57.59924      -22.98873
O        103.58037       58.46386      -23.41773
H         99.73726       53.68649      -23.83206
H        100.72650       53.16575      -21.15643
H         99.38383       55.19525      -20.50694
H         98.58700       55.17659      -22.10987
H         99.38718       56.80682      -23.57260
H        102.14982       55.10640      -20.72170
H        101.14132       58.34220      -24.34859
H        103.89766       56.65007      -21.51404
H        104.47050       58.48856      -23.03835
N         98.50250       52.92076      -19.61191
C         97.62764       52.06783      -18.77455
C         96.14272       52.19113      -19.10017
O         95.69893       51.67915      -20.11790
C         98.00899       50.55079      -18.72465
C         97.23240       49.81111      -17.58806
C         99.51858       50.31541      -18.58854
C         97.59537       50.25151      -16.16045
H         99.45918       52.93689      -19.18887
H         97.78134       52.48115      -17.76068
H         97.70967       50.07565      -19.68752
H         97.43351       48.72112      -17.66377
H         96.13701       49.94444      -17.72494
H         99.72710       49.22831      -18.49053
H        100.04268       50.67027      -19.50013
H         99.92938       50.85056      -17.70917
H         97.00052       49.66627      -15.42918
H         98.66807       50.06352      -15.94984
H         97.37106       51.32140      -15.98065
N         95.30713       52.80323      -18.21614
C         93.85112       52.77939      -18.32372
C         93.26891       54.10289      -18.77106
O         92.05564       54.16422      -18.94120
C         93.26513       52.38793      -16.95155
O         93.67199       53.31108      -15.97219
H         95.72133       53.27514      -17.39969
H         93.53456       52.03139      -19.08062
H         93.61797       51.36150      -16.69576
H         92.15462       52.37987      -16.98161
H         93.84076       52.80128      -15.13736
N         94.03501       55.20917      -18.97282
C         93.44876       56.49200      -19.33299
C         92.86462       56.45947      -20.74175
O         93.51122       55.90137      -21.61077
C         94.49341       57.60440      -19.26071
H         95.05280       55.15865      -18.81027
H         92.69799       56.72014      -18.55586
H         95.28869       57.45579      -20.02161
H         93.99951       58.58471      -19.43345
H         94.95326       57.62166      -18.24983
N         91.74833       57.12723      -21.13653
C         90.96348       58.02924      -20.30916
C         91.31556       59.45421      -20.70284
O         91.82260       59.65530      -21.79423
C         89.47645       57.73323      -20.52682
H         91.51232       57.09327      -22.14191
H         91.19307       57.90729      -19.24379
H         88.83215       58.43321      -19.96025
H         89.22118       57.82694      -21.60518
H         89.24602       56.69633      -20.20116
N         91.14147       60.51823      -19.86601
C         90.64750       60.45135      -18.50076
C         91.79027       60.19028      -17.53632
O         91.72253       59.24345      -16.76851
C         89.96181       61.78605      -18.15260
C         89.28905       61.76543      -16.77458
C         88.67256       63.10161      -16.48563
O         87.46488       63.20600      -16.34643
O         89.45364       64.19400      -16.37681
H         91.44029       61.44156      -20.22161
H         89.87235       59.66212      -18.40437
H         89.17887       61.98946      -18.91603
H         90.70808       62.60981      -18.19750
H         90.02395       61.53876      -15.97247
H         88.50700       60.97419      -16.76980
N         92.86790       61.02578      -17.51119
C         93.93412       60.88816      -16.54373
H         94.71826       61.65077      -16.74090
H         93.53195       61.05905      -15.52194
H         94.38990       59.87851      -16.60395
H         92.92950       61.79668      -18.19055
Ca        96.99044       51.62553      -23.27945
O         95.76459       54.84093      -22.43213
H         95.57513       54.55302      -21.50195
H         96.19912       55.72215      -22.32494
O         93.36125       52.63654      -22.00533
H         93.42931       53.55368      -21.65859
H         92.54357       52.29398      -21.57276
O         96.96845       53.90273      -25.21952
H         97.68927       54.51401      -24.92520
H         96.14950       54.45875      -25.20302

Ca 1.0



