%chk=apoCaM-CA-Ng.loop1.water1.frame858.chk
%nprocshared=20
%mem=10GB
%nosave
#b3lyp/svp scf=(tight,noincore,xqc) Test 
#IOP(5/87=12) Density=Current Pop=(MK,readradii) iop(6/33=2) iop(6/42=6)

apoCaM-CA-Ng.loop1.water1.frame858 

   0  1 
C         36.43647       53.29514      104.36539
C         35.56339       54.07632      103.43368
O         35.02594       53.50028      102.49753
H         37.46085       53.72154      104.36068
H         36.01904       53.34584      105.39258
H         36.48808       52.23030      104.05197
N         35.36318       55.40893      103.64035
C         34.49679       56.21143      102.78234
C         34.96666       56.23954      101.33818
O         36.02071       55.70726      101.01943
C         34.22743       57.60529      103.39499
C         35.39939       58.46762      103.79939
O         36.68921       58.18114      103.52877
O         35.16529       59.45509      104.47788
H         35.81012       55.84571      104.46093
H         33.50382       55.70724      102.75855
H         33.67790       57.40340      104.34130
H         33.54524       58.19539      102.74634
N         34.13311       56.73087      100.38229
C         34.38023       56.54140       98.95687
C         35.47779       57.42032       98.37759
O         35.84383       57.16258       97.23919
C         33.05238       56.65428       98.17407
C         32.42754       58.06452       98.17811
C         30.93404       58.03498       97.80924
C         30.63362       57.50276       96.40214
N         29.18880       57.45627       96.17232
H         33.21399       57.07725      100.69326
H         34.70209       55.48212       98.82795
H         32.34859       55.94237       98.66104
H         33.19345       56.31856       97.12357
H         33.00418       58.73873       97.50824
H         32.46734       58.49610       99.19827
H         30.53032       59.06724       97.89459
H         30.40596       57.40020       98.55516
H         31.04119       56.47645       96.28057
H         31.11004       58.16660       95.65073
H         28.77191       58.40947       96.27897
H         29.00350       57.10907       95.20398
H         28.74067       56.80077       96.85437
N         36.05201       58.46350       99.05863
C         37.10371       59.28249       98.45293
C         38.48957       58.56791       98.54451
O         39.00744       58.50481       99.84615
C         36.98465       60.79036       98.80323
C         37.08500       61.23059      100.23678
O         36.95892       62.41628      100.49720
O         37.28629       60.36680      101.23992
H         35.70865       58.70314       99.99851
H         36.86999       59.30841       97.38583
H         35.98681       61.12765       98.44272
H         37.74978       61.35347       98.23421
N         39.57939       59.06172       97.67026
C         39.29600       59.61792       96.33505
C         38.47634       58.71611       95.44177
O         38.89063       57.60475       95.14571
H         40.27709       58.28720       97.57497
H         40.26392       59.82475       95.82840
H         38.80583       60.60203       96.45188
N         37.26990       59.15872       94.98973
C         36.35906       58.37177       94.17590
C         36.84745       58.33428       92.74475
O         37.04647       59.39348       92.16345
C         34.95157       59.01173       94.24110
C         33.87003       58.21584       93.55689
O         34.10774       57.14725       93.01616
O         32.61011       58.68789       93.55748
H         36.95385       60.09269       95.29647
H         36.26585       57.35232       94.61154
H         34.98422       60.03203       93.79998
H         34.65761       59.10837       95.30984
N         37.01264       57.15180       92.08847
C         37.39453       57.10387       90.68719
C         38.81892       57.54655       90.43701
O         39.17821       57.68276       89.27587
H         36.79734       56.26691       92.57187
H         36.69154       57.74389       90.11040
H         37.29816       56.06546       90.30341
N         39.70919       57.71418       91.45741
C         41.11003       58.05657       91.24673
C         41.54000       59.20379       92.14429
O         40.76626       59.65686       92.97756
C         41.99077       56.79962       91.48550
C         41.84345       56.21403       92.89675
O         41.65247       55.80325       90.55604
H         39.41037       57.51655       92.42218
H         41.27627       58.38453       90.19653
H         43.06538       57.06146       91.35501
H         42.07620       56.05789       89.69443
H         42.52728       55.34720       93.01266
H         42.09651       56.96659       93.67059
H         40.80913       55.85373       93.07477
N         42.79962       59.70754       92.02179
C         43.36518       60.72521       92.90040
C         43.64078       61.98194       92.08268
O         43.18639       63.05156       92.46188
C         44.65597       60.18718       93.60014
C         44.45538       58.73524       94.11961
C         45.04664       61.13364       94.75424
C         45.69659       58.11890       94.76869
H         43.40378       59.31910       91.28295
H         42.63735       60.97442       93.70604
H         45.48147       60.15364       92.85486
H         44.22120       58.08324       93.25344
H         43.60638       58.68906       94.83512
H         45.18788       62.17102       94.38918
H         44.25020       61.13661       95.53185
H         45.99767       60.82312       95.23103
H         45.49083       57.05469       95.01342
H         46.55948       58.15715       94.07002
H         45.95799       58.63436       95.71399
N         44.31220       61.89617       90.89543
C         44.53770       63.01438       89.98494
C         45.99036       63.02216       89.56235
O         46.48887       61.98800       89.13755
C         43.65518       62.87041       88.72611
C         42.16545       62.89580       89.07348
O         43.92018       63.94496       87.85534
H         44.62386       60.96953       90.57247
H         44.26758       63.98562       90.45757
H         43.88027       61.89400       88.23170
H         44.19070       63.56611       86.97891
H         41.89978       62.04829       89.73876
H         41.90412       63.85086       89.57909
H         41.56451       62.81264       88.14351
N         46.71622       64.17149       89.60168
C         48.12016       64.23431       89.22255
C         48.89936       64.73328       90.41972
O         49.74830       64.00229       90.91145
C         48.29570       65.07183       87.92926
C         49.73919       65.05738       87.42011
O         47.88260       66.40228       88.10945
H         46.25024       65.03991       89.90523
H         48.49828       63.21691       88.97330
H         47.68659       64.58665       87.12706
H         46.96666       66.48273       87.73453
H         50.42596       65.52237       88.15371
H         50.07088       64.01403       87.23047
H         49.80634       65.62205       86.46550
N         48.63036       65.95156       90.97248
C         49.27770       66.44159       92.18144
C         48.24189       66.76690       93.24016
O         47.04620       66.70671       92.98270
C         50.11479       67.69832       91.85060
C         51.23979       67.34800       90.86745
C         52.14494       68.52254       90.47567
C         51.38993       69.64682       89.74996
N         52.32696       70.59466       89.14756
H         47.92576       66.56219       90.53352
H         49.95246       65.66807       92.60929
H         50.57818       68.10988       92.77245
H         49.44535       68.47429       91.41958
H         50.79988       66.93429       89.93884
H         51.87941       66.56431       91.32947
H         52.90944       68.10672       89.78433
H         52.67038       68.93283       91.36626
H         50.72768       70.17921       90.46804
H         50.75932       69.21493       88.94183
H         52.96459       70.99517       89.87274
H         52.89178       70.10787       88.41284
H         51.78985       71.36806       88.69342
N         48.66250       67.14831       94.47403
C         47.76997       67.59341       95.53347
C         46.79942       66.49595       95.96967
O         45.60577       66.75641       95.91569
C         48.57400       68.18823       96.71344
C         49.40419       69.40984       96.26627
C         50.18713       69.98444       97.40809
O         50.00851       71.14055       97.75545
O         51.11258       69.23450       98.03701
H         49.67774       67.15284       94.64968
H         47.16030       68.44106       95.14267
H         49.25533       67.43723       97.15012
H         47.86303       68.51852       97.50256
H         48.72351       70.18356       95.84758
H         50.13220       69.13257       95.47661
N         47.16462       65.24893       96.39294
C         48.51931       64.74535       96.45359
H         49.12615       65.31172       97.18009
H         48.50510       63.68879       96.79729
H         48.98490       64.76581       95.44770
H         46.41427       64.59245       96.66202
Ca        37.62830       57.77753      101.51671
O         39.31225       55.32128      101.13967
H         39.20604       54.39716      101.47820
H         38.75465       55.35247      100.32176

Ca 1.0



