%chk=apoCaM-CA-Ng.loop2.water3.frame1381.chk
%nprocshared=20
%mem=10GB
%nosave
#b3lyp/svp scf=(tight,noincore,xqc) Test 
#IOP(5/87=12) Density=Current Pop=(MK,readradii) iop(6/33=2) iop(6/42=6)

apoCaM-CA-Ng.loop2.water3.frame1381 

   -2  1 
C          3.11369       56.68263       47.52645
C          4.26926       56.39217       48.45141
O          5.30899       56.01623       47.92974
H          2.20193       57.07131       48.00517
H          3.43883       57.45545       46.79658
H          2.84728       55.76258       46.96714
N          4.24904       56.56145       49.80806
C          3.11668       56.98883       50.62955
C          2.87927       56.05758       51.82429
O          2.01634       56.36566       52.63464
C          3.36843       58.44295       51.07967
C          4.63055       58.61531       51.88164
O          4.76207       58.02060       53.08165
O          5.53566       59.31383       51.45375
H          5.14536       56.41787       50.30002
H          2.17154       57.00135       50.06194
H          2.50701       58.81515       51.67453
H          3.43460       59.07007       50.16209
N          3.60151       54.91238       52.00431
C          3.49139       54.03637       53.16747
C          4.83983       53.92730       53.87771
O          4.99574       53.06496       54.73141
C          3.03408       52.65474       52.69074
H          4.29113       54.62901       51.29376
H          2.73695       54.40180       53.89857
H          3.77032       52.22004       51.98140
H          2.91862       51.96623       53.55586
H          2.04897       52.73832       52.18495
N          5.85603       54.78881       53.58359
C          7.21061       54.69684       54.11512
C          7.46127       55.86874       55.06453
O          6.53101       56.62774       55.30538
C          8.17150       54.67854       52.89261
C          8.21485       56.03248       52.23800
O          7.73401       56.24493       51.13680
O          8.77283       57.01592       52.95499
H          5.67804       55.57109       52.93944
H          7.34788       53.75198       54.68403
H          7.82249       53.90101       52.17772
H          9.20605       54.41905       53.20137
N          8.69248       56.10806       55.61219
C          8.94771       57.26852       56.45961
C         10.05309       58.18611       55.90373
O          9.95220       58.43358       54.52480
H          9.47264       55.46449       55.41096
H          9.25848       56.92282       57.46851
H          8.03366       57.88003       56.58936
N         10.09375       59.44951       56.65366
C         11.08046       60.43055       56.15341
C         12.45805       60.17402       56.75992
O         13.01800       61.05812       57.39529
C         10.56315       61.84297       56.49895
C          9.14743       62.05081       56.01389
N          8.14867       62.28849       56.89802
O          8.89784       61.99091       54.81940
H         10.22518       59.27690       57.67842
H         11.16107       60.37865       55.04565
H         11.22517       62.61460       56.04881
H         10.58517       61.96857       57.60340
H          8.33691       62.33338       57.91062
H          7.17966       62.42014       56.57367
N         13.04477       58.95109       56.64424
C         14.30080       58.64587       57.31211
C         14.67964       57.17732       57.22205
O         13.95928       56.40197       56.61109
H         12.55832       58.21881       56.11421
H         14.18900       58.88863       58.39080
H         15.10748       59.27201       56.87190
N         15.80761       56.68459       57.80922
C         16.77490       57.47320       58.56675
C         18.11667       57.53656       57.84175
O         19.03064       58.15703       58.36444
C         16.94066       56.88707       59.99520
C         15.61727       56.86463       60.77978
O         17.52663       55.60686       59.96035
H         15.99968       55.67683       57.69153
H         16.43581       58.52270       58.67996
H         17.63130       57.54822       60.56308
H         16.83398       54.94996       59.69071
H         15.79515       56.47843       61.80631
H         15.19446       57.88851       60.85567
H         14.87125       56.20686       60.28449
N         18.30309       56.92894       56.62963
C         19.56154       56.92285       55.89261
C         19.30898       57.56678       54.52721
O         18.37695       57.13508       53.86347
C         20.04904       55.45404       55.72817
C         20.20749       54.77942       57.11847
C         21.37506       55.41735       54.94157
C         20.55673       53.29245       57.04552
H         17.52568       56.41891       56.18966
H         20.33577       57.46638       56.46376
H         19.27887       54.89226       55.15307
H         19.24617       54.84339       57.67156
H         20.98179       55.31132       57.71361
H         22.17552       55.94504       55.50226
H         21.69636       54.37664       54.74219
H         21.26286       55.90370       53.95232
H         19.77629       52.74425       56.47606
H         21.54547       53.12688       56.57433
H         20.60158       52.87592       58.07396
N         20.04856       58.59161       54.00434
C         21.25280       59.16577       54.58909
C         22.26855       59.50218       53.49930
O         21.95077       60.24694       52.58181
C         20.89868       60.36193       55.49878
C         20.14028       61.47601       54.82839
O         18.90034       61.78736       55.25192
O         20.65025       62.13254       53.93600
H         19.74400       58.97100       53.09316
H         21.74743       58.42944       55.25038
H         21.82902       60.77189       55.94882
H         20.26959       59.97525       56.33018
N         23.53370       58.99689       53.56383
C         24.60031       59.31802       52.62101
C         25.19216       58.03838       52.05347
O         25.53910       57.16765       52.84472
C         25.66492       60.15688       53.35984
C         26.82818       60.54022       52.47064
C         27.82435       59.59853       52.15127
C         26.93312       61.84398       51.95582
C         28.89583       59.95094       51.32824
C         28.00449       62.19058       51.12563
C         28.98463       61.24505       50.81251
H         23.78154       58.39350       54.36428
H         24.22466       59.96590       51.80362
H         26.04899       59.64271       54.26778
H         25.14552       61.07899       53.70453
H         27.78096       58.59244       52.54592
H         26.18035       62.58810       52.18385
H         29.65770       59.21924       51.09206
H         28.07490       63.19281       50.72378
H         29.81448       61.51504       50.17262
N         25.41387       57.84764       50.71548
C         25.14990       58.81538       49.65725
C         23.66472       58.94019       49.37729
O         23.19848       60.05532       49.18504
C         25.96351       58.26689       48.47550
C         25.91292       56.77073       48.67506
C         26.05666       56.65418       50.19264
H         25.57351       59.82259       49.86901
H         25.66539       58.64234       47.47291
H         27.02782       58.55469       48.64339
H         24.90558       56.43034       48.36533
H         26.65373       56.18065       48.09518
H         25.57548       55.71306       50.53764
H         27.12418       56.67542       50.50520
N         22.84882       57.85253       49.39421
C         21.41752       57.91996       49.13811
C         21.18841       58.22537       47.66279
O         21.63213       57.43856       46.83770
C         20.75786       56.57130       49.50233
C         20.88827       56.26565       51.00733
C         20.35366       54.90265       51.33231
O         20.87172       53.90986       50.84569
O         19.32150       54.76399       52.18480
H         23.25531       56.93980       49.63823
H         20.96541       58.69066       49.79736
H         21.24031       55.76214       48.90935
H         19.67630       56.59906       49.24315
H         20.33293       57.03753       51.58102
H         21.94806       56.29308       51.33633
N         20.52025       59.32723       47.21743
C         19.95176       60.33692       48.08259
H         19.18595       59.88510       48.74688
H         20.74746       60.81635       48.68855
H         19.46447       61.12450       47.46882
H         20.40957       59.45632       46.19921
Ca         7.85037       58.88546       53.77046
O          5.68527       59.55110       56.11193
H          6.13151       59.25481       56.94413
H          5.48218       60.50669       56.26996
O          9.30300       60.59416       51.75874
H          9.74765       61.39493       52.13428
H          9.90352       59.84348       51.99632
O          4.83341       61.42816       53.57966
H          4.20468       61.54060       52.82283
H          5.24583       62.32057       53.69559

Ca 1.0



