%chk=apoCaM-CA-Ng.loop4.water3.frame217.chk
%nprocshared=20
%mem=10GB
%nosave
#b3lyp/svp scf=(tight,noincore,xqc) Test 
#IOP(5/87=12) Density=Current Pop=(MK,readradii) iop(6/33=2) iop(6/42=6)

apoCaM-CA-Ng.loop4.water3.frame217 

   -3  1 
C         31.82432       36.40473       78.90456
C         32.87260       37.35731       79.39526
O         33.76285       36.91136       80.09126
H         31.06581       36.91720       78.27877
H         32.30711       35.60672       78.30061
H         31.31623       35.93738       79.77456
N         32.83987       38.67837       79.05938
C         33.82644       39.67583       79.47004
C         35.22215       39.39321       78.92744
O         36.18037       39.33575       79.67784
C         33.70565       40.10032       80.96574
C         33.58505       39.11574       82.11939
O         34.55304       38.25673       82.50157
O         32.58719       39.18247       82.82043
H         32.07823       39.00263       78.44441
H         33.57037       40.62335       78.94114
H         32.76487       40.69597       81.00845
H         34.52190       40.81554       81.19389
N         35.39491       39.34018       77.57316
C         36.66706       39.22630       76.85753
C         37.57603       40.41747       77.16594
O         37.51229       41.39116       76.42827
C         37.34047       37.83058       77.01133
C         38.65109       37.70526       76.18179
C         36.35657       36.70473       76.64382
C         38.49397       37.83891       74.66205
H         34.55260       39.44454       76.98565
H         36.40048       39.31578       75.78050
H         37.61243       37.67417       78.07637
H         39.10813       36.71885       76.39930
H         39.37536       38.47744       76.50615
H         35.99707       36.80573       75.59889
H         36.84473       35.71471       76.75943
H         35.47191       36.72676       77.31426
H         37.82310       37.05758       74.25261
H         38.10935       38.84092       74.38393
H         39.48775       37.71558       74.18150
N         38.46062       40.40778       78.20950
C         39.29173       41.55250       78.57492
C         40.77992       41.37706       78.25285
O         41.30552       42.29241       77.63376
C         39.09329       41.92649       80.05790
C         37.68188       42.35874       80.34474
O         37.19911       43.31442       79.75811
O         36.95409       41.71864       81.27571
H         38.52890       39.56689       78.79392
H         38.97495       42.45233       77.99847
H         39.75759       42.78268       80.30851
H         39.36626       41.07855       80.71812
N         41.57853       40.32858       78.62061
C         41.13265       39.07758       79.20804
C         42.30476       38.12929       79.44438
O         43.11393       37.99991       78.53625
H         42.58193       40.41762       78.39311
H         40.47888       38.57517       78.47307
H         40.54854       39.26889       80.11099
N         42.46644       37.35049       80.56187
C         41.53763       37.21626       81.67893
C         40.16881       36.83060       81.12324
O         39.22180       37.58476       81.29178
C         41.59941       38.46596       82.59270
C         40.81257       38.27964       83.86037
O         39.94178       39.07635       84.16664
O         41.09150       37.25236       84.68591
H         43.28127       36.71916       80.57633
H         41.89211       36.38633       82.32874
H         41.27052       39.38980       82.08349
H         42.65977       38.61915       82.88931
N         39.98665       35.70615       80.36249
C         40.96057       34.64229       80.17878
C         41.56879       34.63338       78.80100
O         41.25247       35.47904       77.97398
H         39.08757       35.57643       79.89030
H         40.47532       33.66722       80.39877
H         41.80240       34.74428       80.88764
N         42.55807       33.73467       78.53689
C         43.40913       33.82230       77.35753
C         42.71376       33.44482       76.05779
O         43.26142       33.75805       75.01292
C         44.67059       32.93160       77.49925
C         45.49781       33.16603       78.77985
C         45.93670       34.59754       78.94232
N         45.57098       35.30776       80.03577
O         46.63347       35.11914       78.08514
H         42.79040       33.05774       79.27835
H         43.74792       34.88082       77.28173
H         45.32887       33.10860       76.62026
H         44.36687       31.86087       77.48781
H         46.39764       32.51580       78.74239
H         44.91796       32.84869       79.67024
H         44.98612       34.88417       80.77165
H         45.87276       36.28640       80.15063
N         41.57208       32.69453       76.03861
C         40.95324       32.22925       74.78991
C         41.05515       30.71661       74.63389
O         40.61545       30.21545       73.60149
C         39.47750       32.69879       74.69284
C         39.39158       34.22794       74.70981
C         38.58663       32.10764       75.79783
H         41.15775       32.39656       76.93068
H         41.49260       32.65131       73.91487
H         39.07068       32.35423       73.71536
H         38.33735       34.55427       74.58506
H         39.77824       34.62541       75.67008
H         39.98917       34.65587       73.87703
H         37.53721       32.43124       75.63729
H         38.60706       30.99768       75.77233
H         38.90509       32.44686       76.80461
N         41.61159       29.92020       75.58623
C         41.73205       28.47436       75.47027
C         40.88236       27.76721       76.51330
O         40.32716       26.73004       76.19486
C         43.20504       28.04716       75.62482
C         44.09861       28.65850       74.57313
N         43.91589       28.38575       73.25908
O         45.00901       29.39786       74.91492
H         41.98698       30.35153       76.44414
H         41.38589       28.11580       74.47379
H         43.28645       26.94020       75.54771
H         43.56440       28.34782       76.63301
H         43.16456       27.75397       72.94739
H         44.53609       28.80200       72.54826
N         40.77622       28.24664       77.79284
C         40.08779       27.52072       78.86219
C         38.98319       28.36728       79.46924
O         38.95800       29.54551       79.18906
C         41.11733       27.25105       79.98221
C         42.43944       26.76883       79.43780
C         42.54721       25.53899       78.77509
C         43.57809       27.58751       79.56346
C         43.77760       25.13368       78.24662
C         44.80229       27.18309       79.03274
C         44.90843       25.95668       78.37285
O         46.09820       25.58308       77.86228
H         41.24136       29.12550       78.04784
H         39.66928       26.56875       78.47332
H         40.71125       26.54802       80.73977
H         41.30546       28.22082       80.49912
H         41.67947       24.90170       78.66306
H         43.51811       28.54974       80.05877
H         43.84972       24.18348       77.73468
H         45.66633       27.82902       79.12966
H         46.21679       24.74399       77.39602
N         38.12669       27.82678       80.39786
C         37.21121       28.54424       81.30273
C         36.06511       29.33250       80.65926
O         34.91867       28.98145       80.90121
C         38.00087       29.42218       82.29435
C         38.98771       28.57667       83.11999
C         39.71164       29.40837       84.13589
O         39.59337       29.12285       85.44691
O         40.42358       30.33402       83.78089
H         38.20104       26.81195       80.55943
H         36.71456       27.76319       81.92676
H         37.28154       29.89941       82.99707
H         38.54659       30.22441       81.75311
H         39.73789       28.10065       82.45660
H         38.42905       27.77186       83.64714
N         36.28269       30.43761       79.88825
C         35.23662       31.29741       79.33551
C         34.24060       30.54387       78.45889
O         33.21834       31.12952       78.12864
C         35.85892       32.41850       78.44862
C         36.96360       33.29664       79.07380
C         36.47330       34.26098       80.10118
O         35.89393       33.88089       81.10503
O         36.77918       35.56071       79.94213
H         37.23808       30.72542       79.73958
H         34.67868       31.73217       80.19365
H         35.06170       33.08271       78.04647
H         36.32898       31.89927       77.58743
H         37.42183       33.89382       78.25626
H         37.79115       32.70451       79.50291
N         34.47283       29.27348       78.01334
C         33.54207       28.53882       77.18132
H         32.61486       29.11120       76.96955
H         34.03092       28.29151       76.21613
H         33.26010       27.59595       77.69467
H         35.35279       28.79333       78.24415
Ca        36.07032       37.21916       81.24284
O         37.87913       35.81572       83.85396
H         37.22234       35.91417       84.58821
H         38.23424       36.72933       83.71993
O         37.25632       39.29806       83.15189
H         36.65397       40.02433       83.45040
H         37.95505       39.75432       82.61955
O         34.17587       35.37436       83.36452
H         33.92926       34.51746       83.79413
H         35.15618       35.31573       83.24265

Ca 1.0



