%chk=apoCaM-CA-Ng.loop3.water3.frame245.chk
%nprocshared=20
%mem=10GB
%nosave
#b3lyp/svp scf=(tight,noincore,xqc) Test 
#IOP(5/87=12) Density=Current Pop=(MK,readradii) iop(6/33=2) iop(6/42=6)

apoCaM-CA-Ng.loop3.water3.frame245 

   0  1 
C         18.20919       43.65494       87.43439
C         19.03626       44.90931       87.44668
O         19.08081       45.60180       86.44118
H         17.14929       43.90400       87.22362
H         18.58542       42.96604       86.65252
H         18.26012       43.12463       88.40932
N         19.73457       45.25330       88.56366
C         20.59764       46.42320       88.68984
C         21.75545       46.36730       87.69878
O         22.09005       47.37472       87.09017
C         19.79302       47.74027       88.59788
C         18.67130       47.77847       89.59836
O         18.93490       47.70198       90.91673
O         17.51542       47.88410       89.21965
H         19.67505       44.63433       89.38739
H         21.05425       46.37564       89.70472
H         19.37596       47.85563       87.57437
H         20.46489       48.60409       88.79206
N         22.41213       45.19079       87.49430
C         23.58633       45.03892       86.63788
C         23.27684       44.20808       85.39610
O         24.20466       43.68999       84.78836
C         24.73067       44.40056       87.47034
C         24.46499       42.93242       87.87597
C         25.62174       42.35727       88.69738
C         25.37817       40.87355       89.01136
N         26.46062       40.32576       89.82684
H         22.05010       44.35237       87.96898
H         23.95499       46.02835       86.28861
H         24.90002       45.01952       88.37890
H         25.66474       44.42585       86.86684
H         24.34351       42.31471       86.96063
H         23.53947       42.84752       88.48024
H         25.71331       42.93098       89.64539
H         26.57051       42.45254       88.12548
H         25.31179       40.30160       88.05815
H         24.41514       40.75579       89.55644
H         26.50347       40.82591       90.74437
H         26.27666       39.31153       90.00258
H         27.37424       40.42321       89.32724
N         21.99976       44.06170       84.93925
C         21.62824       43.15021       83.86269
C         21.23586       43.95727       82.63551
O         20.34054       44.78567       82.73033
C         20.48720       42.26128       84.40115
C         20.18107       40.99295       83.61315
O         19.81708       41.25116       82.29269
O         21.28039       40.12980       83.59354
H         21.24243       44.59393       85.39061
H         22.49179       42.49679       83.61078
H         19.56327       42.86932       84.50872
H         20.77085       41.90601       85.41637
N         21.92561       43.82296       81.46363
C         21.72737       44.70940       80.32422
C         20.38634       44.60027       79.62309
O         20.11135       45.46607       78.80550
H         22.69485       43.13837       81.41057
H         22.51515       44.52431       79.56132
H         21.85813       45.75251       80.68497
N         19.52855       43.56113       79.83145
C         18.23376       43.44099       79.15855
C         17.07918       43.30270       80.15123
O         15.95380       43.10285       79.71083
C         18.27420       42.31258       78.10010
C         18.49015       40.91482       78.62154
N         17.58334       39.94036       78.37423
O         19.51183       40.64445       79.23056
H         19.81781       42.80521       80.46002
H         18.01931       44.35824       78.56773
H         19.09416       42.53927       77.38364
H         17.32418       42.34581       77.52284
H         16.72304       40.13656       77.84213
H         17.74941       38.97772       78.70141
N         17.25934       43.46580       81.49592
C         16.18142       43.40336       82.46888
C         15.63963       42.00495       82.59471
O         14.45451       41.79875       82.38426
H         18.19147       43.69572       81.86316
H         15.38114       44.12673       82.19433
H         16.57524       43.69632       83.46622
N         16.47960       40.99100       82.94576
C         16.06432       39.60031       83.07143
C         16.74096       38.73491       82.03011
O         17.66400       39.16322       81.35830
C         16.39655       39.06927       84.48390
C         15.39474       39.51216       85.51693
C         14.07183       39.04953       85.41540
C         15.75547       40.33075       86.59986
C         13.12362       39.39332       86.37735
C         14.79924       40.67862       87.56383
C         13.48069       40.20604       87.45554
O         12.55119       40.51786       88.38086
H         17.46835       41.21480       83.11059
H         14.97798       39.50208       82.86252
H         17.43681       39.36689       84.74826
H         16.36700       37.95824       84.50210
H         13.77885       38.40374       84.59652
H         16.77057       40.69386       86.70340
H         12.11222       39.01753       86.28677
H         15.08401       41.30733       88.39799
H         12.75309       41.06618       89.15161
N         16.22882       37.48968       81.81167
C         16.70226       36.56308       80.79342
C         15.64902       36.51917       79.70120
O         15.95854       36.84712       78.56241
C         16.94393       35.16062       81.43334
C         18.00111       35.25940       82.56208
C         17.36316       34.13301       80.36405
C         18.17007       33.96724       83.36449
H         15.40605       37.20633       82.36361
H         17.65390       36.92217       80.34144
H         15.98898       34.81381       81.88671
H         17.68899       36.03732       83.29095
H         18.98010       35.55905       82.13336
H         18.32496       34.42840       79.89718
H         17.46879       33.11925       80.79799
H         16.58956       34.04921       79.57399
H         18.55116       33.13837       82.73619
H         18.90532       34.13561       84.17947
H         17.20140       33.67085       83.82100
N         14.36766       36.16354       79.98942
C         13.29105       36.15461       79.00889
C         13.53899       35.12328       77.92883
O         13.49296       35.48065       76.76076
C         11.94596       35.87459       79.69389
O         11.69304       36.87562       80.64334
H         14.13659       35.91831       80.96489
H         13.20614       37.16487       78.54500
H         11.97894       34.87544       80.18513
H         11.13484       35.88746       78.93196
H         10.97358       36.53093       81.23252
N         13.81279       33.82061       78.25047
C         13.97865       32.74988       77.26613
C         15.11492       32.99154       76.27150
O         15.22349       32.22613       75.32149
C         12.64460       32.52482       76.53726
H         13.88296       33.56299       79.24609
H         14.20124       31.80083       77.80247
H         12.71874       31.65069       75.85588
H         11.84666       32.30922       77.28039
H         12.34446       33.40942       75.94000
N         16.00061       34.01811       76.41697
C         17.01555       34.37051       75.43281
C         18.41096       34.24329       76.01894
O         18.53700       33.81889       77.15473
C         16.74537       35.81802       74.99368
H         15.95467       34.61169       77.25530
H         16.95588       33.71692       74.53512
H         15.71789       35.90026       74.58019
H         16.83309       36.50794       75.86138
H         17.45090       36.15174       74.20672
N         19.49549       34.61476       75.27543
C         20.90311       34.67266       75.67917
C         21.54678       33.31061       75.93585
O         22.40524       32.93871       75.14492
C         21.21466       35.77919       76.72865
C         20.64894       35.64023       78.15370
C         21.04496       36.77629       79.05985
O         21.73892       37.69908       78.66140
O         20.61597       36.77651       80.33565
H         19.31055       34.92842       74.31023
H         21.43776       35.05444       74.77614
H         20.84410       36.74252       76.31188
H         22.32221       35.84981       76.80976
H         21.02002       34.70738       78.61909
H         19.54643       35.65313       78.12778
N         21.23289       32.51062       76.99210
C         21.89356       31.23905       77.20113
H         22.98608       31.39719       77.33095
H         21.49633       30.74789       78.11426
H         21.71897       30.57050       76.33114
H         20.52821       32.78932       77.67974
Ca        21.15973       39.66569       81.38361
O         23.81409       38.33956       81.55631
H         23.30548       37.51677       81.76845
H         23.75415       38.88690       82.37956
O         20.37278       37.34934       83.78000
H         20.74938       37.74237       84.60677
H         20.62761       36.39416       83.82542
O         22.65130       40.93214       79.27129
H         22.30931       41.80103       78.94300
H         23.34019       41.17033       79.94154

Ca 1.0



