%chk=apoCaM-CA-Ng.loop1.water4.frame60.chk
%nprocshared=20
%mem=10GB
%nosave
#b3lyp/svp scf=(tight,noincore,xqc) Test 
#IOP(5/87=12) Density=Current Pop=(MK,readradii) iop(6/33=2) iop(6/42=6)

apoCaM-CA-Ng.loop1.water4.frame60 

   0  1 
C         62.24921       70.24272       80.05863
C         62.18362       71.60372       80.68422
O         61.98315       72.57680       79.97012
H         63.24520       69.79194       80.24796
H         61.46114       69.59260       80.49280
H         62.08948       70.30737       78.96019
N         62.33083       71.75001       82.03331
C         62.23904       73.05384       82.68602
C         63.37626       73.99409       82.29278
O         63.29264       75.16756       82.61937
C         62.12255       72.90318       84.21935
C         63.35114       72.35326       84.88261
O         64.37856       73.00887       84.90143
O         63.30612       71.16733       85.51880
H         62.45973       70.90193       82.60677
H         61.28159       73.51082       82.34886
H         61.26234       72.23028       84.43049
H         61.90901       73.88957       84.68122
N         64.47475       73.55489       81.61067
C         65.53112       74.44075       81.12769
C         64.95771       75.28205       80.00266
O         64.36975       74.68881       79.10825
C         66.75881       73.62813       80.64282
C         67.64431       73.13196       81.81427
C         66.96348       72.15600       82.78472
C         67.85878       71.85218       83.99396
N         67.18949       70.94736       84.92988
H         64.56409       72.54998       81.40395
H         65.91512       75.06580       81.93889
H         67.41573       74.31086       80.06060
H         66.45567       72.80206       79.96335
H         67.97589       74.02710       82.38672
H         68.55199       72.64475       81.39755
H         66.69570       71.21979       82.24901
H         66.05235       72.61724       83.19082
H         68.08931       72.80646       84.52100
H         68.81419       71.39640       83.65661
H         66.29230       71.36538       85.26408
H         66.99639       70.02965       84.46811
H         67.80710       70.79170       85.75877
N         65.06339       76.64427       79.90825
C         65.83678       77.56797       80.74383
C         67.31665       77.18352       80.74534
O         67.86745       76.95718       81.81458
C         65.29467       77.74840       82.18693
C         63.84520       78.09907       82.31051
O         63.01654       78.16047       81.25454
O         63.38557       78.27890       83.42678
H         64.60415       77.07670       79.09004
H         65.75432       78.57269       80.27795
H         65.88158       78.56323       82.66280
H         65.44790       76.85613       82.81287
N         68.05194       77.04205       79.60464
C         67.55294       77.24776       78.25583
C         68.64199       77.80498       77.36489
O         69.67640       77.15927       77.26914
H         69.01411       76.68118       79.70691
H         66.64018       77.86469       78.24602
H         67.29013       76.25266       77.83606
N         68.51557       78.93805       76.61583
C         67.34506       79.80490       76.57362
C         67.30225       80.73795       77.77262
O         68.24023       81.50175       77.96034
C         67.39306       80.66983       75.29123
C         66.20585       81.59149       75.18541
O         66.37063       82.80037       75.14088
O         64.95705       81.08877       75.14864
H         69.29840       79.15860       75.97856
H         66.42269       79.19013       76.48406
H         67.40076       80.00515       74.40042
H         68.32912       81.27244       75.27792
N         66.18746       80.81291       78.55230
C         65.91849       81.96497       79.40046
C         66.22077       81.76254       80.86108
O         66.73161       80.72951       81.26360
H         65.39029       80.20035       78.32348
H         64.84198       82.21985       79.29650
H         66.48262       82.85532       79.04394
N         65.92002       82.78061       81.71839
C         66.19012       82.76531       83.15490
C         65.45756       81.64961       83.88419
O         64.63631       80.96777       83.28140
C         65.81657       84.14339       83.78355
C         64.31262       84.47328       83.67923
O         66.56286       85.15139       83.15139
H         65.50953       83.62893       81.30082
H         67.28161       82.60207       83.29290
H         66.08825       84.11896       84.86298
H         66.56124       85.93759       83.75824
H         63.97568       84.54451       82.62473
H         63.69885       83.70514       84.19480
H         64.10952       85.45252       84.16232
N         65.68667       81.44154       85.21274
C         64.95845       80.47615       86.02105
C         64.11802       81.23573       87.02151
O         64.66553       81.88387       87.90758
C         65.91971       79.48419       86.75513
C         66.65893       78.58329       85.73655
C         65.14790       78.62259       87.78396
C         67.69839       77.65647       86.37852
H         66.37889       82.03619       85.69669
H         64.27247       79.87468       85.38501
H         66.66949       80.08284       87.32023
H         67.19337       79.22508       85.00496
H         65.92068       77.96160       85.18448
H         65.82571       77.97180       88.36934
H         64.65361       79.26444       88.53890
H         64.37743       77.99871       87.28441
H         68.45511       78.25112       86.93275
H         67.23156       76.92506       87.06905
H         68.21182       77.07089       85.58818
N         62.76491       81.13715       86.96627
C         61.87129       81.61602       88.00690
C         61.11260       80.44441       88.63944
O         60.34979       80.68634       89.55978
C         60.94019       82.72870       87.46440
C         60.07264       82.28380       86.28523
O         61.71282       83.82842       87.05470
H         62.34451       80.63073       86.17020
H         62.45383       82.07395       88.83804
H         60.24775       83.05179       88.27676
H         62.00706       84.29844       87.87923
H         60.70298       82.01512       85.41514
H         59.43969       81.41658       86.56390
H         59.41343       83.12209       85.97421
N         61.32275       79.14523       88.23662
C         60.74006       77.95730       88.85409
C         59.23647       77.85664       88.69142
O         58.51714       78.83054       88.86373
C         61.14642       77.78450       90.33693
C         62.66330       77.68351       90.48799
O         60.58862       76.59748       90.84554
H         61.98252       78.94501       87.47607
H         61.17259       77.07451       88.32637
H         60.80152       78.65501       90.94001
H         59.76061       76.84521       91.33408
H         62.92397       77.52585       91.55530
H         63.05417       76.82375       89.89956
H         63.14934       78.61561       90.14294
N         58.70149       76.62845       88.45110
C         57.27826       76.33235       88.40172
C         56.93015       75.88760       86.99535
O         56.03909       76.48245       86.40788
C         56.91996       75.36341       89.55631
C         57.49224       73.93667       89.43284
C         57.58443       73.19094       90.77780
C         58.72590       73.76031       91.65212
N         58.95866       72.94377       92.84099
H         59.35481       75.84002       88.34004
H         56.69050       77.25489       88.61244
H         55.81720       75.28473       89.68271
H         57.30571       75.86077       90.46915
H         58.51889       73.93302       89.02483
H         56.84477       73.37797       88.72178
H         57.84011       72.13408       90.54841
H         56.61251       73.20395       91.31861
H         58.50398       74.79995       91.96816
H         59.66543       73.77566       91.05415
H         59.76246       73.34906       93.37477
H         58.11006       72.94018       93.45037
H         59.20636       71.96668       92.56164
N         57.67521       74.94182       86.34497
C         57.55444       74.67208       84.91844
C         57.13362       73.23405       84.69786
O         57.86311       72.46329       84.08703
C         58.89877       75.00464       84.21311
C         59.42368       76.44670       84.41142
C         58.49114       77.51667       83.89120
O         58.86355       78.36669       82.91286
O         57.38721       77.65612       84.38517
H         58.42601       74.44689       86.84486
H         56.76607       75.29488       84.45162
H         58.79864       74.81048       83.12281
H         59.67250       74.31743       84.61167
H         60.39852       76.52430       83.88204
H         59.61899       76.62867       85.49070
N         55.92016       72.81996       85.15495
C         55.39825       71.48522       84.94500
H         54.45541       71.55345       84.36229
H         56.10415       70.83517       84.38632
H         55.18307       71.01406       85.92575
H         55.32066       73.49109       85.65848
Ca        60.89580       78.42567       81.95273
O         60.62299       75.64887       80.50765
H         60.96199       75.93180       79.62204
H         61.36440       75.85303       81.12835
O         58.13399       77.45248       80.19435
H         58.06797       76.68089       80.81173
H         57.42973       78.07644       80.50272
O         61.27960       81.31390       82.65303
H         61.77342       81.07192       83.47605
H         60.81762       82.16121       82.87353
O         61.76148       81.10658       79.49967
H         61.72918       81.92660       80.05344
H         62.27482       81.37280       78.69608

Ca 1.0



