%chk=apoCaM-CA-Ng.loop4.water4.frame546.chk
%nprocshared=20
%mem=10GB
%nosave
#b3lyp/svp scf=(tight,noincore,xqc) Test 
#IOP(5/87=12) Density=Current Pop=(MK,readradii) iop(6/33=2) iop(6/42=6)

apoCaM-CA-Ng.loop4.water4.frame546 

   -3  1 
C         57.40374       12.22013       57.92303
C         56.45810       11.24070       57.29700
O         55.91751       10.40186       58.00196
H         58.40691       12.11796       57.45911
H         57.02823       13.25249       57.76205
H         57.49338       12.03889       59.01551
N         56.20720       11.30182       55.95677
C         55.31305       10.40236       55.22897
C         53.85290       10.52967       55.63778
O         53.04952        9.80890       55.06356
C         55.76853        8.92850       55.35505
C         57.18016        8.73600       54.88842
O         58.10864        8.25822       55.73733
O         57.48885        8.99700       53.73697
H         56.69541       12.02419       55.40512
H         55.35673       10.67374       54.14989
H         55.11190        8.27868       54.73604
H         55.67754        8.58007       56.40444
N         53.41072       11.42976       56.56765
C         52.00598       11.50847       56.96916
C         51.27822       12.53707       56.11485
O         51.95057       13.37435       55.52788
C         51.85222       11.75920       58.50321
C         52.45613       13.12520       58.93876
C         52.46367       10.58586       59.28948
C         52.17118       13.49052       60.39615
H         54.06668       12.12278       56.94375
H         51.54890       10.52987       56.74971
H         50.77090       11.78109       58.73932
H         52.01520       13.93170       58.31498
H         53.55624       13.13803       58.79608
H         52.26317       10.68069       60.37557
H         52.01284        9.62769       58.95717
H         53.55900       10.53001       59.13164
H         52.63920       12.76976       61.09592
H         52.60052       14.49248       60.61154
H         51.07643       13.52910       60.57666
N         49.92283       12.54910       55.91995
C         48.94852       11.58589       56.44276
C         49.23300       10.18365       55.94015
O         49.25238        9.26374       56.74750
C         47.50826       11.95601       56.02001
C         47.03652       13.25606       56.61915
O         47.58434       14.31014       56.34022
O         45.98295       13.26205       57.45825
H         49.56492       13.29322       55.30170
H         48.94985       11.58622       57.55240
H         46.82386       11.15582       56.38347
H         47.42420       12.00010       54.91247
N         49.50645        9.94954       54.62417
C         49.78938        8.61983       54.11698
C         48.51152        7.84266       53.94880
O         47.70344        8.22175       53.11332
H         49.57705       10.74593       53.97375
H         50.51030        8.11051       54.78869
H         50.26994        8.68705       53.11770
N         48.24934        6.75464       54.72207
C         47.03625        5.95354       54.60126
C         46.09885        6.18974       55.78053
O         45.14428        5.44085       55.93724
C         47.41674        4.47128       54.36767
C         48.22521        3.84267       55.47189
O         49.35626        3.44093       55.24850
O         47.69401        3.66898       56.69434
H         48.92120        6.50170       55.46047
H         46.44869        6.25078       53.70537
H         48.00808        4.42417       53.42584
H         46.49884        3.86446       54.21352
N         46.24677        7.28311       56.59046
C         45.34126        7.61528       57.68007
C         45.48691        6.71919       58.89081
O         44.81000        6.97118       59.87651
H         46.99451        7.96256       56.39727
H         44.29311        7.62030       57.31099
H         45.58298        8.64346       58.02897
N         46.37763        5.68878       58.91304
C         46.66043        4.84671       60.06474
C         47.32372        5.66017       61.16088
O         47.06136        5.45209       62.33706
C         45.43061        4.01845       60.50011
C         44.96258        3.10506       59.35054
C         43.73382        2.29388       59.67658
N         43.24019        1.43368       58.75598
O         43.17534        2.40749       60.75824
H         46.95076        5.50300       58.08481
H         47.44857        4.12541       59.74959
H         44.60522        4.69316       60.80947
H         45.69926        3.38101       61.37077
H         45.78813        2.40503       59.09560
H         44.72978        3.71856       58.45395
H         43.70107        1.32433       57.84019
H         42.39840        0.87406       58.95692
N         48.26279        6.58325       60.80511
C         49.13445        7.29558       61.72958
C         50.61048        7.05480       61.37376
O         51.46610        7.54782       62.09600
C         48.79875        8.81691       61.74142
C         48.89344        9.46772       60.34989
C         47.40298        9.06407       62.33235
H         48.38265        6.78345       59.80232
H         48.99158        6.91208       62.76439
H         49.52807        9.32520       62.41102
H         49.89819        9.31065       59.91462
H         48.13364        9.05115       59.65523
H         48.71703       10.56198       60.42720
H         47.34505        8.65035       63.36195
H         47.19914       10.15496       62.39202
H         46.61478        8.58924       61.71056
N         50.98987        6.32801       60.27576
C         52.37762        6.10958       59.88782
C         53.09417        5.22058       60.86398
O         52.64842        4.09930       61.07969
C         52.46377        5.38441       58.52342
C         51.94570        6.22165       57.39674
N         52.55424        7.38335       57.07530
O         50.98450        5.83781       56.75007
H         50.27903        5.92250       59.65585
H         52.89926        7.08773       59.79826
H         51.89655        4.42672       58.57512
H         53.52406        5.14006       58.28872
H         53.38275        7.71383       57.59152
H         52.20067        7.94489       56.29522
N         54.28076        5.60923       61.40816
C         55.13822        4.64604       62.08974
C         56.28897        5.32245       62.82600
O         56.43443        6.53541       62.74063
C         55.69220        3.67706       61.00142
C         56.28519        2.41212       61.54788
C         55.45754        1.49858       62.21857
C         57.64819        2.12001       61.38247
C         55.98414        0.30902       62.72097
C         58.17584        0.93067       61.89411
C         57.34701        0.02123       62.56239
O         57.86743       -1.12453       63.04450
H         54.61168        6.57077       61.23532
H         54.52073        4.11777       62.84908
H         56.42400        4.23836       60.37700
H         54.88876        3.34448       60.31199
H         54.40143        1.70583       62.34316
H         58.30101        2.81302       60.86667
H         55.33044       -0.38711       63.23074
H         59.22907        0.71501       61.76882
H         57.32410       -1.77865       63.50703
N         57.15462        4.58446       63.57877
C         58.29075        5.15707       64.27711
C         59.57685        4.55379       63.70978
O         59.81873        3.38257       63.96784
C         58.13827        4.88810       65.78666
C         59.26630        5.51283       66.62451
C         59.08668        5.28219       68.10322
O         59.99873        5.77410       68.96225
O         58.12996        4.65907       68.53878
H         57.01193        3.56965       63.66860
H         58.28451        6.25500       64.18485
H         58.10316        3.79087       65.96908
H         57.16916        5.32532       66.11681
H         59.29416        6.60874       66.44257
H         60.24156        5.07633       66.32162
N         60.47906        5.25076       62.94991
C         60.27630        6.59717       62.42176
C         61.13664        7.60611       63.15156
O         61.94441        7.23305       63.99190
C         60.59516        6.64899       60.91502
C         59.75734        5.69204       60.05345
C         59.97915        5.96719       58.58573
O         59.38066        5.31567       57.74532
O         60.79776        6.97012       58.20013
H         61.36288        4.77816       62.70006
H         59.22918        6.92049       62.52673
H         61.67411        6.43084       60.74578
H         60.39008        7.68328       60.56612
H         58.67804        5.84324       60.26919
H         60.02770        4.63952       60.28824
N         60.99097        8.93275       62.87864
C         61.78379        9.95095       63.52647
H         62.85737        9.80058       63.28701
H         61.47449       10.95376       63.16111
H         61.63208        9.90877       64.62526
H         60.28381        9.23775       62.19284
Ca        61.02226        7.72465       56.08787
O         59.78669        5.56546       54.46724
H         60.49479        5.29194       55.10313
H         60.16339        5.35613       53.57634
O         63.68992        7.88406       54.76748
H         64.17935        8.55520       55.30629
H         63.87949        7.02060       55.21374
O         60.94909        8.88752       53.20233
H         60.05864        9.28714       53.03852
H         60.89547        7.98653       52.79531
O         61.28426        9.94012       58.89215
H         60.41070       10.36168       58.69278
H         61.95476       10.57654       58.53747

Ca 1.0



