%chk=apoCaM-CA-Ng.loop1.water3.frame749.chk
%nprocshared=20
%mem=10GB
%nosave
#b3lyp/svp scf=(tight,noincore,xqc) Test 
#IOP(5/87=12) Density=Current Pop=(MK,readradii) iop(6/33=2) iop(6/42=6)

apoCaM-CA-Ng.loop1.water3.frame749 

   0  1 
C        -19.77544       27.62040       35.74414
C        -18.99848       28.89798       35.74693
O        -19.48121       29.88909       35.21539
H        -20.75000       27.76012       35.22885
H        -19.19645       26.83894       35.20951
H        -19.96202       27.29639       36.78841
N        -17.77091       28.95322       36.33685
C        -16.97920       30.17821       36.34969
C        -16.62670       30.62311       34.93206
O        -16.82735       29.86217       33.99481
C        -15.72513       30.02772       37.24208
C        -14.74135       28.97344       36.80204
O        -14.98210       28.16843       35.74741
O        -13.67531       28.88161       37.38851
H        -17.41009       28.10635       36.80306
H        -17.60901       30.97369       36.80566
H        -16.03765       29.80129       38.28442
H        -15.19086       31.00260       37.25498
N        -16.14290       31.87882       34.70450
C        -15.86264       32.39738       33.36992
C        -14.40195       32.77424       33.27719
O        -13.94208       33.62411       34.02595
C        -16.79438       33.59068       33.06552
C        -16.56068       34.28017       31.70207
C        -16.69577       33.34928       30.48442
C        -16.52972       34.13825       29.17486
N        -16.58932       33.25355       28.01103
H        -15.99999       32.50900       35.50855
H        -16.08265       31.62212       32.60692
H        -16.67295       34.36247       33.85668
H        -17.84507       33.22727       33.10536
H        -15.55049       34.74361       31.69095
H        -17.31086       35.09659       31.61161
H        -17.69331       32.85874       30.49172
H        -15.90989       32.56755       30.52473
H        -15.54941       34.66511       29.17607
H        -17.33655       34.90137       29.09858
H        -17.50548       32.75016       27.98360
H        -16.49081       33.82567       27.14093
H        -15.80557       32.56156       28.04691
N        -13.61767       32.16418       32.34745
C        -12.19377       32.44314       32.17029
C        -11.65061       31.76860       30.91344
O        -12.27820       30.86125       30.38779
C        -11.37369       32.03408       33.42344
C        -11.84204       30.72495       33.99238
O        -11.86012       29.59352       33.26291
O        -12.32162       30.70905       35.11545
H        -14.07231       31.48005       31.72712
H        -12.09979       33.53458       31.98352
H        -11.52669       32.80670       34.20738
H        -10.28552       31.99216       33.21554
N        -10.53000       32.22245       30.28411
C         -9.70914       33.33735       30.72892
C         -9.99410       34.57498       29.92291
O        -10.91468       34.58180       29.11681
H        -10.28138       31.79186       29.38084
H         -8.64256       33.04255       30.63170
H         -9.87716       33.61166       31.78474
N         -9.24309       35.69096       30.12366
C         -9.44204       36.92629       29.37617
C         -9.26363       36.69361       27.88380
O        -10.18028       36.99944       27.13552
C         -8.54319       38.07493       29.89598
C         -7.05774       37.85290       29.76653
O         -6.38780       38.60816       29.08080
O         -6.44899       36.85154       30.42973
H         -8.51078       35.64913       30.84657
H        -10.48715       37.27194       29.55055
H         -8.77598       38.25682       30.96747
H         -8.81764       38.99644       29.33520
N         -8.12450       36.13849       27.37612
C         -7.93521       35.90437       25.95132
C         -8.85165       34.84088       25.36650
O         -8.81060       34.66300       24.15626
H         -7.35352       35.88856       28.01134
H         -6.89021       35.57098       25.76923
H         -8.08326       36.86584       25.41472
N         -9.66903       34.07073       26.14317
C        -10.53474       33.01036       25.63086
C        -10.08261       31.67887       26.21440
O         -9.20056       31.67681       27.06770
C        -12.01526       33.30353       26.01154
C        -12.47910       34.70320       25.58616
O        -12.88432       32.33987       25.47317
H         -9.65463       34.20452       27.15813
H        -10.44706       32.95149       24.52354
H        -12.10777       33.25907       27.11864
H        -12.84902       32.42516       24.48369
H        -12.39996       34.82989       24.48637
H        -13.53535       34.85625       25.89497
H        -11.86988       35.48212       26.08200
N        -10.61284       30.49133       25.79551
C        -10.17930       29.21040       26.35583
C         -8.68625       28.97308       26.09108
O         -8.09901       28.13758       26.75794
C        -11.07798       28.02674       25.86037
C        -12.59459       28.26414       26.13244
C        -10.65641       26.67034       26.46248
C        -12.96450       28.49793       27.60131
H        -11.33139       30.50590       25.05818
H        -10.29535       29.28659       27.45946
H        -10.96169       27.93734       24.75710
H        -13.16524       27.38514       25.76008
H        -12.95947       29.13622       25.55398
H         -9.63465       26.38698       26.14253
H        -10.68922       26.69119       27.57137
H        -11.32676       25.86308       26.09793
H        -12.67031       27.63903       28.23700
H        -12.49059       29.42412       27.98500
H        -14.06404       28.62725       27.68528
N         -7.99965       29.72773       25.18072
C         -6.55384       29.65545       24.99554
C         -6.21606       29.30329       23.55843
O         -7.10942       29.13316       22.74483
C         -5.90913       31.00039       25.43746
C         -6.41423       32.21651       24.65213
O         -6.16308       31.21678       26.80135
H         -8.50643       30.40848       24.60352
H         -6.11344       28.85781       25.63097
H         -4.80745       30.96381       25.28027
H         -5.52375       30.64897       27.30679
H         -5.89117       33.13093       25.00341
H         -6.22283       32.09609       23.56574
H         -7.49816       32.37234       24.81461
N         -4.90702       29.18096       23.19098
C         -4.47748       28.85129       21.84083
C         -3.63620       27.58436       21.88847
O         -4.00782       26.60388       21.25493
C         -3.74001       30.07285       21.22035
C         -3.36130       29.83816       19.75738
O         -2.58081       30.41105       21.93756
H         -4.17929       29.33739       23.89984
H         -5.35989       28.65974       21.19092
H         -4.44136       30.94191       21.22050
H         -2.85844       30.99685       22.68937
H         -4.27009       29.62779       19.15444
H         -2.87532       30.75013       19.34775
H         -2.65366       28.98814       19.66281
N         -2.48392       27.54038       22.61424
C         -1.58513       26.39679       22.67766
C         -1.31037       26.05449       24.13358
O         -0.95248       26.95339       24.88621
C         -0.29188       26.78557       21.94444
C          0.67442       25.60623       21.77894
C          1.90512       26.04474       20.97786
C          2.85745       24.87168       20.72437
N          4.02341       25.31005       19.95777
H         -2.18689       28.38628       23.12254
H         -2.01579       25.51965       22.14376
H          0.20829       27.62851       22.47130
H         -0.57363       27.13432       20.92511
H          0.15410       24.79012       21.22970
H          0.99025       25.22343       22.77367
H          2.43935       26.84411       21.53679
H          1.57767       26.45364       19.99621
H          2.32263       24.07838       20.15527
H          3.19292       24.44431       21.69506
H          4.55178       26.03682       20.49325
H          4.65024       24.49115       19.78718
H          3.72178       25.70281       19.03613
N         -1.42182       24.77994       24.60647
C         -1.19082       24.45990       26.01410
C         -2.25760       25.09526       26.90144
O         -1.87377       25.88540       27.75180
C         -1.07134       22.93946       26.28201
C          0.23199       22.36148       25.70831
C          0.34903       20.89546       26.01452
O         -0.46515       20.10588       25.56323
O          1.35723       20.44379       26.78552
H         -1.64753       24.02144       23.94382
H         -0.20694       24.88842       26.31814
H         -1.94048       22.37873       25.88857
H         -1.03531       22.77860       27.38311
H          1.09268       22.89199       26.17435
H          0.28165       22.50940       24.60940
N         -3.59802       24.83617       26.82418
C         -4.25731       23.96772       25.87073
H         -5.02065       24.55214       25.31684
H         -3.58042       23.53243       25.12174
H         -4.76500       23.14407       26.41564
H         -4.21577       25.30577       27.50470
Ca       -13.43091       28.23617       34.12701
O        -11.03801       27.21724       35.74599
H        -11.61692       27.60395       36.44893
H        -10.58542       26.45827       36.19156
O        -12.02263       26.25464       32.17185
H        -11.46067       26.91282       31.69064
H        -11.37607       25.62039       32.57206
O        -14.47406       28.63665       31.35497
H        -13.80239       28.60695       30.62852
H        -15.31668       28.89851       30.90662

Ca 1.0



