%chk=apoCaM-CA-Ng.loop2.water3.frame692.chk
%nprocshared=20
%mem=10GB
%nosave
#b3lyp/svp scf=(tight,noincore,xqc) Test 
#IOP(5/87=12) Density=Current Pop=(MK,readradii) iop(6/33=2) iop(6/42=6)

apoCaM-CA-Ng.loop2.water3.frame692 

   -2  1 
C         70.71798       82.46116       96.79343
C         70.07505       83.32528       97.84133
O         69.03562       83.90816       97.56770
H         71.65785       82.00115       97.16549
H         70.02196       81.65135       96.49168
H         70.96310       83.07965       95.90369
N         70.65449       83.47585       99.06598
C         70.10889       84.34963      100.09875
C         68.75603       83.84903      100.57326
O         68.68288       82.75184      101.10902
C         71.08544       84.42828      101.29536
C         70.67301       85.40077      102.37373
O         71.44873       85.53752      103.46513
O         69.65790       86.07281      102.27448
H         71.54197       82.98255       99.25065
H         70.02122       85.37266       99.66841
H         72.08287       84.74686      100.92359
H         71.19208       83.41782      101.74812
N         67.64366       84.62150      100.41778
C         66.32040       84.24405      100.90730
C         65.39106       83.99354       99.71869
O         65.80959       84.27745       98.60419
C         65.83457       85.37882      101.82446
H         67.73562       85.52633       99.92907
H         66.39475       83.31139      101.49707
H         66.57117       85.53738      102.64054
H         65.74299       86.32518      101.24829
H         64.87076       85.18166      102.31380
N         64.13344       83.45469       99.80429
C         63.44236       83.01890      101.01969
C         64.13581       81.87176      101.75484
O         65.04048       81.24424      101.22295
C         61.96178       82.67485      100.71355
C         61.74305       81.58108       99.69774
O         62.68020       81.01469       99.16008
O         60.48550       81.24166       99.35746
H         63.61990       83.37426       98.91237
H         63.39381       83.87505      101.70823
H         61.47053       83.59129      100.32011
H         61.44314       82.39242      101.65419
N         63.77412       81.61155      103.04494
C         64.41257       80.64401      103.93137
C         65.14807       81.39937      105.02880
O         65.37567       82.58859      104.84467
H         63.03673       82.19681      103.46734
H         65.13056       79.98813      103.39831
H         63.60850       80.00863      104.35767
N         65.53852       80.85731      106.22220
C         65.24455       79.50925      106.71147
C         66.09327       78.40974      106.08884
O         65.94032       77.26796      106.50280
C         65.37373       79.47012      108.25973
C         66.78836       79.57555      108.79450
N         67.28545       78.61453      109.60963
O         67.48224       80.54117      108.51548
H         65.96887       81.51986      106.88438
H         64.17188       79.29734      106.51190
H         64.92332       78.52144      108.62645
H         64.76588       80.29835      108.68378
H         66.71523       77.80029      109.88164
H         68.24084       78.69255      109.98881
N         66.99785       78.65285      105.09927
C         67.81377       77.61424      104.49374
C         66.97282       76.47656      103.96558
O         67.24346       75.33599      104.31183
H         67.11618       79.60740      104.73367
H         68.54258       77.22200      105.23728
H         68.38979       78.05914      103.65335
N         65.91804       76.72048      103.13965
C         65.08602       75.66321      102.57091
C         65.19257       75.68807      101.05735
O         65.86504       76.54546      100.50355
C         63.63191       75.75187      103.09867
C         63.56386       75.32571      104.57192
O         63.14062       77.05598      102.95129
H         65.69759       77.69733      102.89536
H         65.47647       74.66192      102.85655
H         62.99262       75.04251      102.52764
H         62.17755       77.03407      103.19332
H         63.92898       74.28116      104.68164
H         64.17686       75.99082      105.20832
H         62.51356       75.35676      104.93183
N         64.63666       74.67127      100.33864
C         64.91920       74.43143       98.93001
C         63.63183       74.43495       98.12183
O         62.76748       73.60379       98.35708
C         65.65644       73.05891       98.82433
C         65.84997       72.58784       97.35925
C         67.01257       73.13984       99.56333
C         66.34364       71.14099       97.26718
H         64.08002       73.96030      100.83498
H         65.59467       75.21342       98.51892
H         65.01751       72.30159       99.33188
H         66.54040       73.26475       96.81664
H         64.87398       72.60084       96.83178
H         67.67839       73.88126       99.07093
H         66.87688       73.44406      100.62180
H         67.52845       72.16094       99.58818
H         66.39955       70.83509       96.20212
H         67.35065       71.01473       97.71017
H         65.62978       70.46504       97.78753
N         63.48353       75.32656       97.10004
C         62.38000       75.31781       96.14385
C         62.88790       75.07895       94.71765
O         62.05847       75.07117       93.81735
C         61.54005       76.61302       96.26028
C         62.37259       77.85420       96.19205
O         63.09486       78.06723       95.23388
O         62.40996       78.68386       97.24851
H         64.21945       76.03079       96.95727
H         61.68056       74.47983       96.35557
H         61.02585       76.60408       97.24586
H         60.75715       76.63233       95.47204
N         64.19755       74.78250       94.43626
C         64.63744       74.33945       93.11609
C         65.97002       74.99098       92.74388
O         66.96336       74.28193       92.64519
C         64.69433       72.79106       93.16160
C         64.89068       72.12614       91.81707
C         63.98174       72.35931       90.76699
C         65.95124       71.22600       91.61276
C         64.13626       71.71189       89.53851
C         66.09632       70.57332       90.38295
C         65.19062       70.81720       89.34700
H         64.88104       74.70019       95.20296
H         63.88616       74.60284       92.34615
H         63.71455       72.42641       93.54054
H         65.46889       72.46650       93.89250
H         63.14609       73.03435       90.89570
H         66.65579       71.01514       92.40743
H         63.43168       71.89787       88.73783
H         66.90704       69.87197       90.23418
H         65.30136       70.30907       88.39760
N         66.08862       76.33864       92.51054
C         67.33585       77.00105       92.14267
C         68.46952       76.87625       93.14716
O         69.57514       77.28121       92.81507
C         66.94325       78.47787       92.02251
C         65.51507       78.37729       91.54338
C         64.97200       77.25406       92.42638
H         67.64999       76.57246       91.16396
H         66.89535       78.93028       93.04165
H         67.62598       79.09165       91.39651
H         64.93158       79.32109       91.58531
H         65.54561       78.01997       90.48786
H         64.73625       77.60941       93.44727
H         64.07779       76.82656       91.92667
N         68.27991       76.36094       94.39730
C         69.38129       76.15774       95.32739
C         70.26967       75.07839       94.74961
O         71.44066       75.33504       94.50527
C         68.90822       75.74207       96.74510
C         68.43247       76.90115       97.65143
C         67.10958       77.54155       97.35403
O         66.66359       78.50912       98.17312
O         66.39102       77.15503       96.45184
H         67.34014       76.06442       94.67642
H         69.97136       77.09538       95.44242
H         69.80664       75.35279       97.27397
H         68.16910       74.91571       96.70841
H         69.21573       77.68785       97.67456
H         68.33409       76.49120       98.68055
N         69.76163       73.84563       94.47628
C         70.55993       72.80157       93.87659
H         71.41602       72.55070       94.53716
H         69.93998       71.89245       93.72650
H         70.93767       73.13961       92.88774
H         68.77048       73.64629       94.68135
Ca        64.47830       78.94025       98.03947
O         65.29897       81.65679       97.17569
H         65.25619       81.51990       96.19633
H         66.22547       81.96191       97.34425
O         62.78747       78.78202      100.84944
H         62.52928       79.31734      101.64193
H         62.03880       78.14626      100.72532
O         67.74041       80.01375      100.33523
H         67.33441       80.65425       99.69765
H         68.46845       79.58140       99.82164

Ca 1.0



