%chk=apoCaM-CA-Ng.loop2.water3.frame416.chk
%nprocshared=20
%mem=10GB
%nosave
#b3lyp/svp scf=(tight,noincore,xqc) Test 
#IOP(5/87=12) Density=Current Pop=(MK,readradii) iop(6/33=2) iop(6/42=6)

apoCaM-CA-Ng.loop2.water3.frame416 

   -2  1 
C         84.64256      102.20121       84.77887
C         84.45256      103.09598       83.58770
O         85.43764      103.44691       82.95637
H         85.28933      102.70640       85.52482
H         83.67438      101.95300       85.26202
H         85.13121      101.25632       84.46082
N         83.20582      103.49521       83.20677
C         82.96686      104.35597       82.05140
C         83.57439      105.72940       82.29412
O         83.19441      106.38490       83.25528
C         81.44930      104.46553       81.78323
C         81.09348      105.21920       80.52603
O         79.79779      105.35578       80.18785
O         81.95386      105.69249       79.79977
H         82.39683      103.15082       83.74730
H         83.42555      103.87203       81.15988
H         80.95088      104.95027       82.65077
H         81.03709      103.43835       81.67654
N         84.54668      106.21518       81.46790
C         85.23413      107.48441       81.70117
C         85.90900      107.44587       83.05366
O         85.69746      108.35073       83.84737
C         86.26334      107.75418       80.60170
H         84.83524      105.63920       80.66203
H         84.49949      108.32128       81.67431
H         87.03070      106.95295       80.56583
H         85.75084      107.80967       79.61741
H         86.76484      108.72895       80.78633
N         86.64239      106.35095       83.41163
C         87.13161      106.08724       84.75815
C         88.29839      106.99025       85.10234
O         88.22216      107.75877       86.05093
C         85.94320      106.12628       85.75946
C         86.28137      105.56035       87.10067
O         86.11557      106.20857       88.12097
O         86.71452      104.29574       87.16629
H         86.77014      105.60188       82.71512
H         87.53078      105.04684       84.76642
H         85.12965      105.48761       85.35115
H         85.54357      107.15164       85.88638
N         89.44458      106.90502       84.36506
C         90.63434      107.70283       84.62040
C         91.84450      106.86663       85.00489
O         92.89553      107.45632       85.20956
H         89.47994      106.23425       83.58104
H         90.46004      108.43312       85.43862
H         90.87103      108.27748       83.69916
N         91.78586      105.50734       85.13750
C         92.92232      104.67990       85.53567
C         93.24842      103.68298       84.44535
O         92.34641      103.01822       83.95365
C         92.60109      103.90905       86.82987
C         92.38946      104.83173       88.00220
N         91.23193      104.80962       88.70082
O         93.28300      105.59526       88.33794
H         90.89593      105.01807       84.96576
H         93.82909      105.29307       85.73699
H         93.46182      103.24860       87.07811
H         91.70994      103.26252       86.67321
H         90.46974      104.16607       88.44458
H         91.10271      105.43428       89.50991
N         94.54586      103.45974       84.08849
C         94.93916      102.44630       83.12335
C         95.47558      101.22236       83.82687
O         95.49699      101.18364       85.05038
H         95.29741      103.96094       84.58684
H         95.69027      102.87474       82.42603
H         94.06959      102.11100       82.51902
N         95.88628      100.14557       83.09731
C         96.30595       98.89209       83.72838
C         95.14540       98.19686       84.44836
O         95.40238       97.24282       85.17229
C         96.98793       97.92793       82.71897
C         96.06926       97.43367       81.58976
O         98.15424       98.51042       82.19048
H         95.89064      100.23334       82.07160
H         97.07705       99.14728       84.48976
H         97.31119       97.02504       83.28249
H         97.88672       99.23252       81.56542
H         96.62785       96.73048       80.93709
H         95.20314       96.89004       82.01023
H         95.70017       98.27036       80.96234
N         93.85426       98.62055       84.31205
C         92.71869       98.07172       85.04437
C         92.17709       99.15768       85.94827
O         92.22029      100.32676       85.58029
C         91.63484       97.54908       84.04990
C         92.16012       96.38593       83.16991
C         90.32557       97.13531       84.75053
C         92.54482       95.11285       83.93621
H         93.64269       99.40152       83.67357
H         93.03303       97.23811       85.70655
H         91.37002       98.38422       83.36228
H         93.04009       96.73509       82.59821
H         91.37647       96.11596       82.42883
H         89.58938       96.76976       84.00291
H         90.49769       96.34447       85.50847
H         89.86112       98.00543       85.25367
H         91.67351       94.69103       84.47773
H         92.89808       94.34490       83.21743
H         93.36619       95.30168       84.65537
N         91.61081       98.83070       87.14279
C         91.05641       99.81747       88.05451
C         91.61987       99.65719       89.47104
O         91.13364      100.30991       90.38220
C         89.52245       99.67685       88.01295
C         88.85168      100.97709       88.32285
O         87.97546      101.11861       89.32759
O         89.06470      101.93446       87.59385
H         91.51600       97.83225       87.39185
H         91.31049      100.83886       87.69422
H         89.17573       98.83484       88.64250
H         89.20470       99.46329       86.96962
N         92.67272       98.81744       89.71792
C         93.24167       98.57312       91.04013
C         92.28495       97.75095       91.88647
O         91.85711       96.70588       91.41506
C         94.58902       97.81296       90.88837
C         95.26592       97.52719       92.21570
C         96.39758       98.26265       92.60799
C         94.77965       96.52076       93.07388
C         97.01078       98.01281       93.84059
C         95.39540       96.27387       94.30206
C         96.50785       97.02218       94.68796
H         93.12402       98.34161       88.92509
H         93.49730       99.54267       91.51606
H         95.24753       98.46724       90.27471
H         94.46809       96.85835       90.33021
H         96.79791       99.03890       91.96837
H         93.92705       95.91751       92.79725
H         97.87517       98.58994       94.14089
H         95.00805       95.50091       94.95367
H         96.98166       96.83101       95.64185
N         91.98458       98.07882       93.18371
C         91.26240       97.18187       94.07264
C         89.77076       97.17744       93.81699
O         89.08688       96.34161       94.39223
C         91.62310       97.70567       95.46544
C         91.72039       99.19869       95.21794
C         92.47104       99.24740       93.88769
H         91.64041       96.13952       93.97487
H         90.94557       97.38654       96.28612
H         92.65412       97.35954       95.70977
H         90.68482       99.57434       95.05284
H         92.18816       99.79436       96.02996
H         92.23525      100.20076       93.36762
H         93.56884       99.14190       94.03075
N         89.18667       98.08112       92.98521
C         87.76994       98.04406       92.66314
C         87.50462       96.84246       91.78148
O         86.67756       96.01170       92.12929
C         87.34739       99.33548       91.94317
C         87.50082      100.56622       92.85585
C         87.08314      101.82265       92.15427
O         87.96710      102.82495       91.98537
O         85.94063      101.94718       91.74254
H         89.76432       98.82208       92.56235
H         87.16348       97.98180       93.59553
H         86.28057       99.24920       91.63938
H         87.96799       99.45667       91.03558
H         88.55763      100.67650       93.17914
H         86.87031      100.44090       93.76225
N         88.19862       96.68324       90.62028
C         87.99249       95.55891       89.73620
H         86.94561       95.55505       89.36660
H         88.67731       95.63649       88.86406
H         88.20572       94.61009       90.27198
H         88.91151       97.37897       90.35938
Ca        86.91073      103.05273       89.01163
O         85.74813      105.12720       91.63508
H         85.73295      104.62146       92.48605
H         85.55015      106.06025       91.89972
O         83.72186      102.69983       88.47093
H         83.96660      103.33551       87.75232
H         84.12769      101.84084       88.19151
O         88.47126      105.50991       90.24282
H         88.29951      106.40614       89.85923
H         88.99537      105.68764       91.06377

Ca 1.0



