%chk=apoCaM-CA-Ng.loop3.water5.frame1072.chk
%nprocshared=20
%mem=10GB
%nosave
#b3lyp/svp scf=(tight,noincore,xqc) Test 
#IOP(5/87=12) Density=Current Pop=(MK,readradii) iop(6/33=2) iop(6/42=6)

apoCaM-CA-Ng.loop3.water5.frame1072 

   0  1 
C         33.21671       85.93188       19.35405
C         33.26030       86.90021       20.49479
O         32.85801       86.55302       21.59659
H         32.55754       86.33724       18.55808
H         34.23906       85.78961       18.94496
H         32.82034       84.94924       19.68587
N         33.75975       88.14940       20.29804
C         33.81838       89.14538       21.35592
C         32.41914       89.52874       21.82154
O         32.14785       89.37553       23.00369
C         34.72672       90.33710       20.96025
C         34.45439       91.02563       19.63970
O         33.32427       91.71822       19.41821
O         35.30613       90.99839       18.76541
H         34.12820       88.38444       19.36370
H         34.34481       88.70016       22.23217
H         35.75887       89.92868       20.89281
H         34.73385       91.06946       21.79175
N         31.47817       90.01641       20.96177
C         30.13477       90.41825       21.37661
C         30.03205       91.93428       21.30489
O         29.22044       92.50233       20.58967
C         29.05014       89.61973       20.62128
C         29.05399       89.78292       19.09056
C         28.02177       88.88350       18.39112
C         26.56645       89.19478       18.77743
N         25.63904       88.37159       18.00200
H         31.72873       90.12671       19.97380
H         29.96906       90.17479       22.45023
H         28.06469       89.92585       21.03098
H         29.20150       88.54334       20.85969
H         30.04644       89.49150       18.69160
H         28.86271       90.83825       18.81031
H         28.24501       87.81725       18.61592
H         28.13644       89.03738       17.29628
H         26.35153       90.26855       18.58217
H         26.40302       88.99209       19.85755
H         24.65884       88.59585       18.28847
H         25.74723       88.57477       16.98166
H         25.82110       87.35713       18.18068
N         30.85471       92.63537       22.12600
C         30.93267       94.08649       22.26968
C         32.37021       94.58621       22.13452
O         32.60176       95.76863       22.34670
C         30.33289       94.50768       23.63652
C         30.86000       93.80895       24.87268
O         30.33895       94.05083       25.94927
O         31.77436       92.82236       24.79755
H         31.46265       92.06466       22.72260
H         30.32298       94.59615       21.49053
H         29.24496       94.28078       23.59397
H         30.43379       95.60746       23.76291
N         33.38666       93.74587       21.78717
C         34.78819       94.11686       21.72769
C         35.11599       95.20768       20.73693
O         34.22119       95.75704       20.11072
H         33.18032       92.76425       21.58609
H         35.36151       93.22123       21.43442
H         35.11573       94.43941       22.73831
N         36.40278       95.61801       20.55110
C         37.56713       94.96746       21.15621
C         37.81197       93.63684       20.45514
O         37.91392       93.64804       19.23581
C         38.81068       95.86490       21.00589
C         38.61846       97.15966       21.76003
N         38.61723       98.34774       21.11344
O         38.45304       97.13188       22.97104
H         36.56078       96.42378       19.92430
H         37.41060       94.83854       22.24668
H         39.00447       96.06277       19.92860
H         39.70173       95.34829       21.42595
H         38.74666       98.39555       20.09280
H         38.47500       99.22461       21.63654
N         37.92681       92.44109       21.10499
C         37.92737       92.28748       22.55704
C         38.11837       90.84532       22.99497
O         38.13900       89.95213       22.15801
H         38.07097       91.61080       20.50963
H         36.98001       92.65790       22.99660
H         38.77390       92.88246       22.96206
N         38.32399       90.55143       24.31411
C         38.61706       89.19532       24.77688
C         37.76157       88.80664       25.98382
O         37.09572       89.65759       26.55729
C         40.12466       89.14036       25.11566
C         40.67108       87.74810       25.30315
C         41.21676       87.34925       26.53351
C         40.66646       86.84274       24.22754
C         41.74388       86.06267       26.68595
C         41.19625       85.55981       24.38110
C         41.73738       85.16499       25.61234
O         42.25614       83.93108       25.77293
H         38.37442       91.32912       24.99068
H         38.40488       88.47684       23.95674
H         40.30972       89.77484       26.01088
H         40.70086       89.58594       24.27424
H         41.23612       88.03216       27.37334
H         40.26260       87.13366       23.26565
H         42.16207       85.76464       27.63879
H         41.18989       84.87662       23.54095
H         42.27690       83.28477       25.05255
N         37.73877       87.51381       26.42016
C         37.01483       87.06522       27.61188
C         37.57321       87.67905       28.88580
O         38.76707       87.58006       29.13151
C         37.00136       85.50620       27.78332
C         35.96479       84.86522       26.83123
C         38.39432       84.84035       27.66676
C         35.73683       83.37601       27.10711
H         38.24907       86.82189       25.85923
H         35.95129       87.37713       27.53045
H         36.61911       85.30834       28.81197
H         36.25303       85.01652       25.76995
H         34.98520       85.36621       27.00121
H         38.78909       84.88484       26.63190
H         39.13089       85.30359       28.34956
H         38.34229       83.77033       27.94892
H         35.45704       83.21880       28.17209
H         34.90808       83.00290       26.47046
H         36.64090       82.77934       26.87356
N         36.72291       88.25424       29.78954
C         37.14413       88.68446       31.12467
C         36.03642       89.42968       31.87639
O         34.93390       89.58200       31.36973
C         37.60337       87.45643       31.94919
O         36.54752       86.54193       32.07521
H         35.72929       88.33457       29.52842
H         37.98963       89.39868       31.01669
H         37.94721       87.76342       32.95918
H         38.46572       86.96404       31.45157
H         36.94237       85.70841       32.44282
N         36.30122       89.95230       33.10912
C         35.38297       90.75448       33.90941
C         34.12661       89.99912       34.31862
O         33.03255       90.51545       34.12888
C         35.06723       92.07839       33.19003
H         37.24078       89.80995       33.50826
H         35.91035       91.01546       34.85351
H         34.44717       92.73373       33.83783
H         36.01039       92.61387       32.95238
H         34.51410       91.90207       32.24344
N         34.20866       88.77000       34.91662
C         33.04901       88.04489       35.44387
C         31.96210       87.79182       34.39968
O         30.85109       87.44711       34.78002
C         32.48680       88.80162       36.65843
H         35.13678       88.33530       35.02932
H         33.37753       87.05654       35.83448
H         32.10144       89.80369       36.38195
H         31.66144       88.22285       37.12667
H         33.28586       88.92268       37.42140
N         32.20690       87.93911       33.06639
C         31.18025       87.82149       32.03954
C         30.50800       86.46380       32.06696
O         29.30374       86.41525       32.28259
C         31.79848       88.15724       30.66563
C         30.81846       87.97780       29.50663
C         31.34282       88.63812       28.27091
O         31.35760       89.98373       28.23249
O         31.61642       87.98672       27.27729
H         33.16273       88.16724       32.76159
H         30.39889       88.59149       32.23785
H         32.69318       87.52684       30.46212
H         32.13018       89.21872       30.71988
H         29.84211       88.45585       29.73811
H         30.64872       86.89138       29.34020
N         31.20707       85.31964       31.85237
C         30.55651       84.02697       31.86674
H         29.76949       83.99090       31.08221
H         31.29650       83.22497       31.66787
H         30.08984       83.84834       32.85961
H         32.22052       85.36603       31.67146
Ca        31.64938       91.21446       26.37093
O         32.84982       93.20706       28.17763
H         32.82693       93.64476       27.28978
H         32.12431       93.64603       28.68838
O         30.04941       88.06354       24.62207
H         29.95301       87.88406       23.65345
H         30.75927       87.43872       24.91387
O         33.91107       88.29869       25.11139
H         34.43020       87.60893       24.62712
H         34.13427       88.15520       26.06466
O         34.72611       91.46422       25.35570
H         34.77306       92.34854       25.79829
H         34.66023       90.81913       26.10386
O         28.71668       91.21975       27.31293
H         29.21830       91.61950       28.06766
H         28.67449       90.25350       27.52600

Ca 1.0



