%chk=apoCaM-CA-Ng.loop4.water4.frame147.chk
%nprocshared=20
%mem=10GB
%nosave
#b3lyp/svp scf=(tight,noincore,xqc) Test 
#IOP(5/87=12) Density=Current Pop=(MK,readradii) iop(6/33=2) iop(6/42=6)

apoCaM-CA-Ng.loop4.water4.frame147 

   -3  1 
C         44.64555       50.71762       98.68424
C         43.95753       50.33689       99.95814
O         43.14872       49.42722       99.93335
H         45.73842       50.55681       98.79840
H         44.28580       50.08477       97.84303
H         44.44697       51.78196       98.44815
N         44.26611       50.96848      101.12608
C         43.73514       50.58420      102.42936
C         44.12024       49.16475      102.77276
O         43.25762       48.32241      102.93493
C         42.25464       50.98737      102.68345
C         41.13255       50.74797      101.68971
O         40.67800       49.53862      101.29293
O         40.51540       51.72653      101.29797
H         44.97818       51.71424      101.10290
H         44.27053       51.17762      103.20698
H         42.28637       52.09380      102.81533
H         41.94740       50.57570      103.66957
N         45.44956       48.88003      102.93373
C         46.06721       47.61893      103.34788
C         45.78981       47.29964      104.81931
O         46.73340       47.32858      105.59800
C         45.75972       46.45008      102.38057
C         46.55067       45.16328      102.74001
C         46.02270       46.84669      100.91516
C         48.08051       45.28025      102.69479
H         46.11184       49.65074      102.75127
H         47.16265       47.80003      103.27945
H         44.68259       46.20903      102.45927
H         46.26035       44.38358      102.01560
H         46.25941       44.81366      103.75341
H         45.36987       47.69134      100.61478
H         47.07650       47.15389      100.75836
H         45.79258       45.99486      100.24136
H         48.45660       45.99892      103.44970
H         48.52882       44.29041      102.92378
H         48.43482       45.58446      101.68986
N         44.54052       47.01730      105.28949
C         44.25311       46.81604      106.70342
C         44.84447       45.49344      107.21003
O         45.66548       45.56490      108.11329
C         42.73825       46.99504      106.99741
C         42.22683       48.37790      106.66268
O         43.03856       49.32415      106.14915
O         41.05191       48.64515      106.85751
H         43.74938       46.98601      104.64447
H         44.73279       47.64256      107.27836
H         42.55875       46.82085      108.08009
H         42.11434       46.29882      106.41941
N         44.53612       44.25169      106.71569
C         43.58416       44.02205      105.64177
C         43.37887       42.56509      105.25599
O         44.03120       41.70370      105.82784
H         45.01604       43.44394      107.14086
H         43.93130       44.57280      104.75111
H         42.62282       44.36583      106.00193
N         42.49010       42.17004      104.28363
C         41.61740       43.02997      103.47388
C         42.45672       44.02549      102.68419
O         42.35417       45.21617      102.94238
C         40.48024       43.68506      104.30234
C         39.66944       42.65777      105.04265
O         39.08928       41.77317      104.43302
O         39.56876       42.71715      106.38425
H         42.43781       41.15918      104.08101
H         41.06273       42.39984      102.74599
H         39.80079       44.22795      103.61437
H         40.84082       44.43906      105.01472
N         43.34199       43.63935      101.71549
C         43.42461       42.30431      101.14944
C         44.74392       41.60581      101.35914
O         45.63008       42.09251      102.04275
H         43.93583       44.35676      101.27695
H         43.24655       42.39844      100.05596
H         42.64644       41.62887      101.54456
N         44.88905       40.37875      100.79849
C         46.05651       39.51634      100.92632
C         47.26852       40.09808      100.20676
O         48.31534       40.19404      100.83042
C         45.64120       38.10201      100.45833
C         46.71918       37.01714      100.56384
C         47.68116       37.07675       99.40992
N         49.00855       37.22609       99.61106
O         47.25064       36.96525       98.27158
H         44.07777       40.01614      100.27094
H         46.31104       39.40105      102.00527
H         45.21647       38.11485       99.43093
H         44.81960       37.80033      101.14829
H         46.21717       36.02735      100.50301
H         47.22750       37.07655      101.55167
H         49.39379       37.30926      100.56188
H         49.65439       37.25271       98.80906
N         47.18866       40.56326       98.92486
C         48.32321       41.19327       98.23232
C         48.53453       40.66167       96.81761
O         49.43170       41.16779       96.14987
C         48.13112       42.73681       98.17493
C         48.12882       43.35766       99.57674
C         46.86441       43.15644       97.42164
H         46.26790       40.55379       98.46321
H         49.26998       41.01041       98.78570
H         49.00234       43.17785       97.63884
H         49.07359       43.11200      100.10606
H         48.05476       44.46397       99.50234
H         47.27116       42.98862      100.17221
H         46.84506       44.26080       97.38773
H         46.86760       42.77661       96.37834
H         45.94668       42.80031       97.93478
N         47.74554       39.70102       96.26241
C         47.81581       39.32839       94.85511
C         46.49978       39.64755       94.14347
O         46.40190       39.36415       92.96137
C         48.10742       37.81607       94.72206
C         49.38697       37.38981       95.39709
N         50.58142       37.89962       95.01862
O         49.34454       36.55360       96.28613
H         47.02592       39.23677       96.83705
H         48.61707       39.89158       94.32776
H         48.17717       37.54045       93.64743
H         47.26105       37.24803       95.16550
H         50.64508       38.59485       94.26204
H         51.44884       37.59120       95.48310
N         45.42302       40.16979       94.81887
C         44.08351       40.22385       94.24925
C         43.39565       41.55781       94.50892
O         43.35541       41.99079       95.64878
C         43.23735       39.13400       94.94661
C         43.86059       37.76062       94.83308
C         44.01987       37.13847       93.58306
C         44.29748       37.09313       95.99084
C         44.60864       35.87216       93.49542
C         44.88586       35.82969       95.90057
C         45.04471       35.21449       94.65547
O         45.61705       33.99570       94.58698
H         45.49498       40.39735       95.81658
H         44.08830       39.99149       93.16267
H         42.21289       39.10894       94.51404
H         43.13940       39.39976       96.02297
H         43.68979       37.63161       92.67752
H         44.19099       37.55289       96.96545
H         44.72642       35.40368       92.52640
H         45.22208       35.33071       96.80069
H         45.74733       33.53401       93.74658
N         42.71654       42.17911       93.49865
C         41.69203       43.22109       93.65309
C         42.10053       44.54840       94.28494
O         41.22836       45.40261       94.37899
C         40.40069       42.66615       94.32276
C         40.50559       42.31328       95.81609
C         39.15956       42.00452       96.39876
O         38.68117       42.74813       97.41479
O         38.49945       41.07249       95.96829
H         42.81940       41.79477       92.54761
H         41.36480       43.48400       92.62060
H         40.04439       41.77649       93.75816
H         39.61826       43.45099       94.21935
H         40.94028       43.17270       96.37174
H         41.13057       41.41379       95.96336
N         43.36609       44.84143       94.69292
C         43.71874       46.14572       95.25763
C         44.55461       46.95163       94.26965
O         44.88621       48.08526       94.58903
C         44.50954       45.95568       96.56762
C         43.80248       45.13958       97.66949
C         42.74368       45.91009       98.40525
O         42.89677       46.12352       99.73009
O         41.76206       46.34405       97.82490
H         44.11956       44.15373       94.55170
H         42.81156       46.75319       95.46563
H         44.82596       46.93568       96.99166
H         45.42334       45.41152       96.27170
H         44.57159       44.86964       98.42366
H         43.39096       44.19488       97.26015
N         44.92509       46.44820       93.05283
C         45.71132       47.18668       92.08664
H         46.65506       46.63669       91.88839
H         45.13949       47.26932       91.13862
H         45.96525       48.20914       92.43467
H         44.65236       45.49643       92.77304
Ca        41.55977       47.49884      100.90944
O         39.66378       44.74297      100.96436
H         38.88568       44.28250      101.36823
H         39.62463       44.50049      100.00571
O         38.18281       47.63493      101.13140
H         37.75766       46.95051      100.55618
H         37.51079       47.82291      101.83368
O         39.77478       46.98418      103.67081
H         40.29250       47.59561      104.25182
H         38.85309       47.01719      104.03134
O         39.68036       48.78356       98.64813
H         40.38768       49.07798       98.02114
H         39.46647       47.85817       98.36872

Ca 1.0



