%chk=apoCaM-CA-Ng.loop3.water3.frame238.chk
%nprocshared=20
%mem=10GB
%nosave
#b3lyp/svp scf=(tight,noincore,xqc) Test 
#IOP(5/87=12) Density=Current Pop=(MK,readradii) iop(6/33=2) iop(6/42=6)

apoCaM-CA-Ng.loop3.water3.frame238 

   0  1 
C         20.73589       53.28944      102.13878
C         20.84270       54.58300      102.89552
O         20.47475       55.60929      102.34296
H         19.67428       53.11124      101.86258
H         21.34255       53.34349      101.21099
H         21.08873       52.42968      102.74532
N         21.33854       54.61206      104.17148
C         21.41773       55.81976      105.00113
C         22.35807       56.88643      104.43005
O         22.38111       57.99300      104.95002
C         20.00165       56.39088      105.25573
C         19.07338       55.41069      105.93215
O         17.93128       55.75149      106.19283
O         19.48044       54.16918      106.26564
H         21.65214       53.72586      104.59616
H         21.83053       55.54552      105.99776
H         19.53887       56.72144      104.30396
H         20.08436       57.27944      105.91754
N         23.19932       56.60543      103.39789
C         24.11017       57.56015      102.76961
C         23.78978       57.66072      101.29175
O         23.63969       58.76553      100.78914
C         25.57105       57.09305      102.95672
C         26.03786       57.11064      104.42539
C         26.19356       58.54080      104.98356
C         26.56794       58.58093      106.47455
N         27.85015       57.93629      106.75981
H         23.22382       55.64015      103.05064
H         24.00464       58.57768      103.19671
H         26.25917       57.73776      102.36514
H         25.66299       56.05634      102.56448
H         27.03124       56.61602      104.46242
H         25.33117       56.52073      105.04705
H         25.23853       59.09387      104.89506
H         26.96272       59.08457      104.39108
H         25.76465       58.09689      107.07247
H         26.62703       59.64886      106.78345
H         27.79816       56.91075      106.56911
H         28.61084       58.37280      106.19053
H         28.07076       58.06482      107.77391
N         23.63715       56.52998      100.54548
C         23.35056       56.49795       99.11838
C         22.20185       57.43835       98.76014
O         21.09471       57.23789       99.24126
C         23.00162       55.03107       98.74140
C         22.89393       54.75921       97.27892
O         23.19351       55.61411       96.46925
O         22.52080       53.53687       96.85461
H         23.73348       55.62304      101.02062
H         24.27306       56.82147       98.58784
H         22.03982       54.76192       99.23267
H         23.78533       54.34265       99.12471
N         22.41269       58.51981       97.94693
C         21.36084       59.47683       97.61847
C         20.26777       58.89514       96.74143
O         19.24399       59.53985       96.56938
H         23.36088       58.69937       97.58251
H         21.79273       60.34586       97.07488
H         20.92488       59.85265       98.56795
N         20.44584       57.70780       96.10704
C         19.46216       57.04724       95.26465
C         19.28764       55.62270       95.76154
O         19.48997       54.68167       95.00971
C         19.87251       57.12829       93.76505
C         21.38333       57.10489       93.45719
N         21.65270       56.89514       92.03899
O         22.13786       56.23599       94.24572
H         21.34665       57.23438       96.21595
H         18.46091       57.52464       95.34675
H         19.54070       58.11397       93.37433
H         19.31669       56.36306       93.17938
H         21.17329       57.64498       91.49050
H         22.68007       57.00503       91.88035
N         18.89547       55.38954       97.04452
C         18.74932       54.04810       97.58705
C         17.67625       53.23899       96.88954
O         17.00686       53.73217       95.99255
H         18.72738       56.19000       97.67255
H         18.49138       54.11340       98.66591
H         19.72155       53.51648       97.49638
N         17.46538       51.95058       97.27787
C         16.47580       51.07258       96.65445
C         16.85429       50.75984       95.20877
O         17.86819       51.25485       94.72991
C         16.35752       49.75607       97.46283
C         16.04244       49.99702       98.92101
C         14.86972       50.67035       99.30551
C         16.92823       49.54373       99.91314
C         14.59595       50.89388      100.65862
C         16.65061       49.76474      101.26401
C         15.48342       50.44295      101.64159
O         15.20574       50.66574      102.94184
H         18.03322       51.58955       98.06000
H         15.48390       51.57503       96.67085
H         17.31391       49.19520       97.36953
H         15.54739       49.12129       97.04934
H         14.16892       51.02636       98.56125
H         17.83612       49.01917       99.64239
H         13.69245       51.41833      100.94326
H         17.34430       49.40867      102.01505
H         15.79454       50.36965      103.65080
N         16.10298       49.90942       94.45439
C         16.45209       49.56563       93.08180
C         16.09475       50.76282       92.21472
O         16.97861       51.31046       91.57431
C         15.77568       48.23396       92.61912
C         16.27686       46.97382       93.39347
C         16.09242       47.95942       91.13341
C         16.05074       46.94570       94.90220
H         15.25938       49.48684       94.86977
H         17.54826       49.37280       93.01291
H         14.67289       48.32681       92.73203
H         17.36636       46.83233       93.21545
H         15.74681       46.08715       92.98058
H         17.18703       47.84170       90.97982
H         15.58418       47.03206       90.79182
H         15.75485       48.77457       90.47805
H         16.67264       47.70656       95.40899
H         14.97604       47.08597       95.14151
H         16.37735       45.96221       95.30115
N         14.82331       51.26755       92.21456
C         14.47271       52.49942       91.50662
C         14.48464       52.34348       89.99570
O         14.52734       53.36164       89.31765
C         13.10235       53.03267       91.95854
O         13.12234       53.35039       93.32559
H         14.11626       50.80895       92.80727
H         15.22952       53.26832       91.78218
H         12.29172       52.30182       91.73159
H         12.85900       53.96430       91.40341
H         12.91542       52.51874       93.82490
N         14.44322       51.11729       89.39085
C         14.49233       50.89408       87.94891
C         15.81869       51.31359       87.31297
O         15.92745       51.21806       86.10286
C         13.29923       51.57092       87.24949
H         14.33982       50.28490       89.98281
H         14.38491       49.80214       87.76040
H         12.34777       51.21421       87.69821
H         13.33843       52.67566       87.32389
H         13.28724       51.30733       86.17029
N         16.87395       51.76485       88.06204
C         18.12680       52.23606       87.47977
C         19.31040       51.40726       87.96040
O         19.13897       50.52829       88.78439
C         18.30629       53.70581       87.88369
H         16.80157       51.80312       89.08260
H         18.09719       52.17438       86.37213
H         18.35811       53.79909       88.99107
H         19.22909       54.14124       87.44934
H         17.44182       54.30264       87.52234
N         20.55985       51.69097       87.47500
C         21.82943       51.08352       87.88135
C         22.01805       49.64999       87.42247
O         22.85911       49.43644       86.55917
C         22.10716       51.26425       89.38299
C         22.12594       52.75410       89.71037
C         22.43393       53.00881       91.13697
O         23.40046       53.69258       91.43714
O         21.57707       52.61824       92.09111
H         20.63548       52.45495       86.78896
H         22.62551       51.65731       87.34874
H         23.10451       50.83504       89.62653
H         21.34655       50.74073       90.00162
H         21.13624       53.21305       89.49785
H         22.89121       53.26020       89.08242
N         21.33786       48.60441       87.96546
C         21.58656       47.24530       87.53626
H         22.65077       46.98182       87.72210
H         20.94273       46.54186       88.10352
H         21.36732       47.14356       86.45214
H         20.65575       48.75368       88.71708
Ca        21.75659       54.09099       93.71596
O         23.85624       51.03174       94.86140
H         23.73475       50.34702       95.56647
H         23.50359       50.60699       94.03930
O         20.81646       51.18428       95.45251
H         20.74404       50.51547       94.72584
H         20.40426       52.00235       95.07781
O         25.03919       54.03593       94.61796
H         25.87653       53.59562       94.32720
H         25.34271       54.79759       95.17276

Ca 1.0



