%chk=apoCaM-CA-Ng.loop1.water3.frame1429.chk
%nprocshared=20
%mem=10GB
%nosave
#b3lyp/svp scf=(tight,noincore,xqc) Test 
#IOP(5/87=12) Density=Current Pop=(MK,readradii) iop(6/33=2) iop(6/42=6)

apoCaM-CA-Ng.loop1.water3.frame1429 

   0  1 
C         74.61033       74.30031       31.95539
C         75.78394       75.23551       31.99559
O         76.28953       75.58249       30.94061
H         73.77753       74.76450       31.38818
H         74.91242       73.35677       31.45235
H         74.25296       74.05017       32.97631
N         76.27812       75.68015       33.18615
C         77.43750       76.56841       33.32413
C         78.78627       75.86201       33.10180
O         79.79888       76.37754       33.56027
C         77.40802       77.24659       34.71936
C         77.58169       76.32183       35.90020
O         77.56673       76.83818       37.14318
O         77.74312       75.12013       35.75367
H         75.76762       75.40801       34.03976
H         77.34043       77.41402       32.61038
H         76.43850       77.77946       34.83003
H         78.21282       78.01290       34.76414
N         78.88645       74.68548       32.42165
C         80.11768       73.91386       32.29735
C         81.23662       74.69870       31.61562
O         82.28679       74.80517       32.23160
C         79.87199       72.53481       31.62821
C         78.79934       71.72575       32.38973
C         78.55741       70.34468       31.78142
C         77.37937       69.66346       32.49678
N         77.12078       68.33541       31.94748
H         78.04777       74.29445       31.99573
H         80.46389       73.67029       33.32860
H         80.82673       71.96405       31.63926
H         79.55612       72.63947       30.57319
H         77.82888       72.25722       32.36040
H         79.09946       71.61109       33.45432
H         79.47870       69.73043       31.87777
H         78.30500       70.45227       30.70365
H         76.46566       70.28958       32.37399
H         77.59632       69.57652       33.58470
H         76.90910       68.40332       30.92554
H         77.95147       67.71941       32.10036
H         76.29461       67.92167       32.43736
N         81.14489       75.31566       30.39650
C         79.94644       75.44232       29.57303
C         79.17694       76.70247       29.96691
O         79.62013       77.39872       30.87221
C         80.34882       75.45895       28.07388
C         81.11214       76.70656       27.70934
O         80.55178       77.88916       28.00798
O         82.20486       76.65131       27.17813
H         81.96901       75.86691       30.10478
H         79.27425       74.58070       29.72271
H         79.42722       75.43951       27.46034
H         80.93376       74.54771       27.81808
N         78.05241       77.09990       29.30112
C         77.30636       78.29697       29.67255
C         77.42912       79.39663       28.65005
O         78.06012       79.21148       27.62480
H         77.71548       76.54933       28.49574
H         77.69187       78.72242       30.62236
H         76.23904       78.03676       29.83334
N         76.88598       80.61338       28.91024
C         77.03781       81.79324       28.05532
C         75.65033       82.28617       27.63208
O         74.67379       81.72560       28.11522
C         77.82450       82.83917       28.89123
C         79.19112       82.31160       29.23754
O         79.44332       81.98684       30.38651
O         80.13712       82.16923       28.28504
H         76.37388       80.72946       29.80112
H         77.60710       81.54120       27.13514
H         77.24924       83.02718       29.82565
H         77.97543       83.81129       28.40687
N         75.41735       83.30468       26.74878
C         76.41109       84.07099       26.01640
C         77.08850       83.27147       24.93131
O         76.41614       82.86458       23.99473
H         74.43334       83.57053       26.58515
H         77.12550       84.55039       26.69746
H         75.90168       84.91332       25.49945
N         78.43217       83.04927       24.96968
C         79.18717       82.45028       23.87192
C         79.63176       81.04779       24.24273
O         80.15070       80.85513       25.32609
C         80.36501       83.37869       23.49496
C         81.11892       82.87661       22.26110
O         81.26847       83.50188       24.56416
H         78.95212       83.34501       25.81017
H         78.54692       82.37589       22.96539
H         79.94921       84.37923       23.22187
H         81.03658       84.33210       25.05667
H         80.42613       82.79623       21.39601
H         81.92569       83.59301       21.99768
H         81.57704       81.88326       22.45216
N         79.42331       80.01904       23.36776
C         79.63993       78.59214       23.61380
C         81.06897       78.23467       23.99529
O         81.53431       78.65183       25.04607
C         78.67400       78.04652       24.69887
C         77.20944       78.52424       24.52408
C         78.74371       76.50853       24.78191
C         76.55648       78.12849       23.19927
H         79.02875       80.25415       22.44431
H         79.38465       78.06813       22.66601
H         79.01897       78.43844       25.66923
H         77.17320       79.63151       24.61070
H         76.59861       78.11668       25.35913
H         78.45324       76.03988       23.81930
H         79.77170       76.17074       25.02564
H         78.06940       76.13681       25.58114
H         77.10455       78.56869       22.34149
H         76.51470       77.02686       23.08635
H         75.51737       78.51811       23.17825
N         81.79299       77.38264       23.21853
C         83.08801       76.84607       23.62571
C         84.22643       77.42507       22.81818
O         85.36141       77.07741       23.11237
C         83.07598       75.29393       23.59100
C         82.85772       74.70643       22.19072
O         82.07036       74.80668       24.44231
H         81.39759       77.08467       22.31551
H         83.31138       77.13935       24.67508
H         84.07189       74.92126       23.93360
H         82.48243       74.66591       25.33442
H         82.90480       73.59787       22.24287
H         81.86263       74.97898       21.78458
H         83.64524       75.05507       21.49033
N         84.02507       78.33627       21.81997
C         85.13481       78.97325       21.12229
C         85.89171       79.82404       22.13651
O         85.39120       80.87822       22.50058
C         84.58888       79.81093       19.93498
C         85.69347       80.47753       19.11685
O         83.84806       78.96648       19.08835
H         83.06428       78.60121       21.55933
H         85.78909       78.17067       20.71383
H         83.92212       80.60552       20.35198
H         83.10803       79.50703       18.70496
H         86.28414       81.17468       19.74574
H         86.36615       79.70904       18.68172
H         85.23426       81.05930       18.28824
N         87.03721       79.35468       22.72427
C         87.73428       80.00380       23.83753
C         86.85692       80.14202       25.07851
O         85.78650       80.72754       25.02583
C         88.39744       81.33369       23.42487
C         89.68677       81.03681       22.63749
C         90.47741       82.29795       22.28011
C         91.87020       81.90873       21.75584
N         92.64646       83.08702       21.37707
H         87.40929       78.44582       22.41047
H         88.56642       79.33582       24.15137
H         88.71702       81.86700       24.34815
H         87.69557       81.99362       22.87264
H         89.46446       80.45703       21.71544
H         90.33505       80.41478       23.29631
H         90.61533       82.92599       23.18767
H         89.91490       82.88166       21.52002
H         91.77435       81.23297       20.87767
H         92.41668       81.36007       22.55774
H         92.18212       83.57542       20.57796
H         92.73760       83.73873       22.19000
H         93.60213       82.78234       21.08051
N         87.30216       79.64630       26.26956
C         86.52492       79.69719       27.49912
C         85.34268       78.73872       27.41905
O         84.22759       79.20643       27.59865
C         87.40584       79.42282       28.74018
C         88.47237       80.51363       28.93075
C         89.32963       80.21860       30.12772
O         88.77649       80.12716       31.35229
O         90.53350       80.06419       29.99676
H         88.24553       79.23171       26.31060
H         86.13559       80.73188       27.64596
H         87.91784       78.44960       28.66604
H         86.75642       79.40944       29.64390
H         87.98015       81.49964       29.07595
H         89.11829       80.57594       28.02860
N         85.44638       77.40197       27.14506
C         86.66604       76.68157       26.84757
H         87.34998       76.66897       27.71202
H         86.42211       75.62054       26.62619
H         87.15962       77.10268       25.94967
H         84.58220       76.84738       27.11441
Ca        80.86788       80.09207       27.80967
O         83.01990       81.75533       26.16105
H         83.13305       80.89484       25.68538
H         83.56562       82.39948       25.64420
O         81.70464       79.93438       30.75911
H         81.21153       80.22864       31.56545
H         81.78824       78.95364       30.86048
O         83.32041       82.16405       29.08535
H         83.77014       81.43563       29.58270
H         82.58739       82.45884       29.68209

Ca 1.0



