%chk=apoCaM-CA-Ng.loop3.water6.frame100.chk
%nprocshared=20
%mem=10GB
%nosave
#b3lyp/svp scf=(tight,noincore,xqc) Test 
#IOP(5/87=12) Density=Current Pop=(MK,readradii) iop(6/33=2) iop(6/42=6)

apoCaM-CA-Ng.loop3.water6.frame100 

   0  1 
C         49.02520       70.79329      102.88518
C         50.25227       71.63626      103.05418
O         50.13293       72.84965      103.13499
H         48.11215       71.42645      102.85897
H         49.09345       70.22634      101.93345
H         48.94256       70.08175      103.73290
N         51.48243       71.04738      103.11109
C         52.73507       71.78060      103.27203
C         53.01983       72.68364      102.06804
O         53.90427       73.52279      102.15843
C         52.73574       72.53244      104.63210
C         54.08396       73.04255      105.08695
O         54.17392       73.69852      106.25919
O         55.09904       72.84240      104.43825
H         51.53708       70.01942      103.04375
H         53.55945       71.03487      103.32427
H         52.39752       71.82578      105.42087
H         52.02627       73.38417      104.60070
N         52.36742       72.51593      100.87513
C         52.64556       73.32863       99.69361
C         51.33331       73.92962       99.21149
O         50.99774       73.81482       98.03923
C         53.26903       72.43324       98.59520
C         54.40195       71.53114       99.11250
C         54.87324       70.57316       98.01232
C         55.76963       69.46928       98.58769
N         56.16293       68.52290       97.54492
H         51.67544       71.75986      100.76893
H         53.35662       74.14503       99.94545
H         53.61740       73.06258       97.74639
H         52.47410       71.74844       98.22324
H         53.99379       70.90761       99.93680
H         55.25132       72.12923       99.50841
H         55.40251       71.14364       97.21823
H         53.98668       70.07516       97.56132
H         55.20263       68.91795       99.37268
H         56.67510       69.91277       99.05602
H         56.74107       69.00757       96.82136
H         56.72433       67.75318       97.97533
H         55.31354       68.10624       97.09726
N         50.47083       74.46031      100.12027
C         49.09105       74.79636       99.80441
C         48.77510       76.16677      100.36738
O         49.03008       76.39640      101.54215
C         48.20430       73.69075      100.41489
C         46.75171       73.68013       99.94526
O         46.10641       74.88259      100.21648
O         46.64885       73.45996       98.56744
H         50.75430       74.48553      101.11175
H         48.91843       74.77465       98.70565
H         48.23516       73.74202      101.52278
H         48.61580       72.70177      100.11308
N         48.20424       77.12612       99.58906
C         47.93331       78.47902      100.04973
C         47.12672       78.51380      101.32744
O         47.58505       79.12702      102.28181
H         47.94874       76.89170       98.61834
H         47.38875       79.02892       99.25407
H         48.89916       79.00398      100.22057
N         45.93765       77.85543      101.43443
C         45.14658       77.85035      102.66233
C         45.19925       76.47689      103.31532
O         45.70887       76.37549      104.42270
C         43.71379       78.39044      102.41717
C         42.84400       77.58817      101.47237
N         41.67115       77.06081      101.89716
O         43.18449       77.43178      100.30957
H         45.61033       77.31087      100.62571
H         45.59476       78.55496      103.39814
H         43.79476       79.42013      102.00658
H         43.20714       78.46553      103.40347
H         41.35094       77.18887      102.86789
H         41.07324       76.52610      101.25024
N         44.71170       75.37438      102.68724
C         44.76330       74.02760      103.23463
C         43.36714       73.51455      103.45897
O         42.42975       74.29900      103.39186
H         44.27255       75.47639      101.76348
H         45.32403       73.96669      104.19228
H         45.28308       73.38334      102.49468
N         43.14209       72.18858      103.68922
C         41.79593       71.66258      103.87917
C         41.29938       70.95719      102.64072
O         42.04037       70.75230      101.69135
C         41.68636       70.77805      105.13538
C         41.79420       71.61088      106.38663
C         43.01926       72.16074      106.79783
C         40.63819       71.86402      107.14538
C         43.08232       72.95382      107.94844
C         40.70148       72.66430      108.28548
C         41.92467       73.21330      108.69164
O         41.99681       73.99209      109.78922
H         43.93649       71.53035      103.66571
H         41.07594       72.50252      104.00005
H         42.42101       69.94353      105.13086
H         40.68101       70.30681      105.12939
H         43.92426       71.97435      106.23426
H         39.67971       71.45892      106.84329
H         44.03103       73.37195      108.25933
H         39.79693       72.85994      108.84735
H         41.21479       74.20288      110.31955
N         39.96976       70.67714      102.56671
C         39.29047       70.21481      101.37068
C         38.36948       71.34332      100.93850
O         38.53009       71.84188       99.83380
C         38.51525       68.89838      101.65690
C         39.42230       67.78960      102.25395
C         37.78791       68.39021      100.39720
C         40.54208       67.29658      101.33196
H         39.38417       70.89447      103.38603
H         40.01761       70.02555      100.55018
H         37.74278       69.11377      102.42799
H         38.78808       66.91704      102.52286
H         39.88179       68.16119      103.19533
H         37.08073       69.14528      100.00996
H         38.50145       68.16903       99.57803
H         37.20782       67.47352      100.63504
H         40.12888       66.83864      100.41049
H         41.23093       68.12056      101.05878
H         41.12987       66.51640      101.85918
N         37.42191       71.84181      101.79090
C         36.55872       72.96819      101.45024
C         35.59709       72.61764      100.33564
O         35.15590       73.52210       99.64133
C         35.75528       73.43631      102.67171
O         36.63580       73.82444      103.69391
H         37.33458       71.43091      102.73224
H         37.20636       73.81431      101.12528
H         35.09298       72.60192      103.00691
H         35.11645       74.30564      102.40221
H         36.24940       73.50562      104.55059
N         35.22588       71.32118      100.11197
C         34.32387       70.88184       99.05360
C         34.86295       71.14112       97.65137
O         34.14845       70.82278       96.70791
C         32.93134       71.50331       99.24311
H         35.57919       70.59024      100.74308
H         34.19417       69.78030       99.14831
H         32.54671       71.26100      100.25670
H         32.94598       72.60449       99.11931
H         32.22078       71.08483       98.49862
N         36.09423       71.69032       97.41559
C         36.58778       71.99270       96.08096
C         37.86105       71.24065       95.76085
O         38.50782       70.70226       96.65121
C         36.84598       73.49716       95.96740
H         36.71563       71.92335       98.19725
H         35.82935       71.70654       95.32055
H         35.91188       74.05919       96.17749
H         37.61912       73.80939       96.70473
H         37.19951       73.76256       94.94904
N         38.24836       71.14226       94.45880
C         39.44548       70.46822       93.97679
C         39.53142       69.05148       94.51950
O         40.52692       68.69016       95.13387
C         40.71390       71.30275       94.26220
C         40.57513       72.74396       93.73558
C         41.86052       73.52152       93.79916
O         43.01057       72.93539       94.18277
O         41.87088       74.69406       93.46069
H         37.63040       71.55052       93.73934
H         39.36613       70.40191       92.86833
H         41.56409       70.80060       93.74855
H         40.92803       71.33904       95.35126
H         39.80653       73.27058       94.34281
H         40.24549       72.73232       92.67479
N         38.49099       68.19362       94.34450
C         38.51117       66.84835       94.87610
H         37.55622       66.33351       94.64013
H         39.34986       66.27496       94.42781
H         38.63296       66.87987       95.98058
H         37.65187       68.50998       93.83568
Ca        44.91416       74.90178       98.28619
O         41.27461       74.29314       99.53864
H         40.87186       74.14911      100.43149
H         40.67099       73.81619       98.91557
O         45.03840       77.72034       97.64260
H         45.24576       78.47916       98.24248
H         45.92051       77.40054       97.32666
O         42.70682       72.27630       97.54975
H         42.82479       72.69861       96.66453
H         41.77583       71.94115       97.54705
O         42.13277       76.51827       97.18380
H         41.20080       76.23659       97.36342
H         42.14163       77.48765       97.38589
O         44.01297       72.49770      100.01782
H         44.09589       71.51336      100.07832
H         43.36600       72.74587      100.72283
O         45.18034       74.58721       95.31852
H         44.26217       74.83420       95.59560
H         45.51397       75.38431       94.83624

Ca 1.0



