%chk=apoCaM-CA-Ng.loop1.water3.frame692.chk
%nprocshared=20
%mem=10GB
%nosave
#b3lyp/svp scf=(tight,noincore,xqc) Test 
#IOP(5/87=12) Density=Current Pop=(MK,readradii) iop(6/33=2) iop(6/42=6)

apoCaM-CA-Ng.loop1.water3.frame692 

   0  1 
C         52.33457       68.60065       87.56383
C         51.58630       68.87517       88.83732
O         50.76237       69.77727       88.87245
H         53.42622       68.70554       87.74017
H         52.12462       67.56285       87.22726
H         52.03216       69.30427       86.75987
N         51.83761       68.11178       89.93402
C         51.17342       68.26229       91.22439
C         52.18877       68.65587       92.28292
O         53.19164       67.98535       92.43378
C         50.36636       66.98509       91.56931
C         50.94632       65.65074       91.12846
O         52.07484       65.09611       91.61925
O         50.34106       65.02217       90.27399
H         52.55204       67.37161       89.84917
H         50.42278       69.08393       91.19522
H         49.41680       67.08422       90.99359
H         50.07747       66.98091       92.64195
N         52.01930       69.79760       93.01093
C         53.02145       70.30646       93.94218
C         53.01568       69.60267       95.29572
O         51.96543       69.44132       95.90108
C         52.86324       71.83190       94.11366
C         53.95123       72.41091       95.04242
C         54.11212       73.93037       94.94440
C         52.83214       74.71923       95.23703
N         53.10165       76.15596       95.18251
H         51.19418       70.38620       92.81555
H         54.02276       70.20055       93.46900
H         51.85520       72.09208       94.50554
H         52.97497       72.28019       93.10156
H         54.93987       71.98644       94.76173
H         53.73261       72.11510       96.09211
H         54.46457       74.18599       93.92112
H         54.90242       74.22985       95.66756
H         52.44305       74.45317       96.24411
H         52.05923       74.46802       94.47774
H         52.21068       76.68079       95.33279
H         53.78262       76.41864       95.93199
H         53.49403       76.41551       94.24768
N         54.21450       69.33175       95.89211
C         54.38367       68.86797       97.26955
C         55.83413       69.08139       97.71018
O         56.72832       68.68962       96.97361
C         53.93846       67.39750       97.46517
C         54.62448       66.37813       96.59313
O         55.95632       66.19169       96.64595
O         53.95317       65.65283       95.88183
H         55.06371       69.58016       95.36324
H         53.74038       69.48236       97.93154
H         52.84362       67.32959       97.28699
H         54.11799       67.11370       98.52503
N         56.19115       69.66283       98.89577
C         55.28126       70.06759       99.95798
C         54.67201       71.43729       99.76463
O         54.93290       72.09628       98.76859
H         57.19923       69.70243       99.11323
H         55.87082       70.14354      100.89736
H         54.51029       69.28551      100.12328
N         53.84739       71.93632      100.73351
C         53.26222       73.27592      100.68051
C         54.29493       74.37333      100.91206
O         53.96433       75.53041      100.69034
C         52.17156       73.44086      101.76202
C         51.05455       72.45171      101.59681
O         50.38193       72.44736      100.57840
O         50.78028       71.57446      102.58114
H         53.61845       71.32556      101.53342
H         52.79561       73.41123       99.67899
H         51.73583       74.46291      101.71138
H         52.63129       73.31239      102.76822
N         55.53161       74.10296      101.42148
C         56.52186       75.12598      101.72099
C         57.80910       74.91637      100.95878
O         58.74829       75.65894      101.20601
H         55.78770       73.13212      101.65300
H         56.74644       75.07494      102.80821
H         56.14878       76.14884      101.49909
N         57.93319       73.93636      100.01767
C         59.16465       73.66961       99.28856
C         59.62290       72.24297       99.54823
O         58.92802       71.48576      100.21303
C         58.95766       73.94477       97.77078
C         57.83883       73.10668       97.12979
O         58.66952       75.30769       97.59166
H         57.12689       73.33680       99.80045
H         59.98105       74.33706       99.64055
H         59.91223       73.70508       97.24947
H         58.92677       75.53944       96.66043
H         57.79227       73.31591       96.03981
H         58.02117       72.02145       97.26861
H         56.85079       73.37098       97.55650
N         60.79563       71.80517       99.01377
C         61.22792       70.41232       99.08599
C         61.79470       70.05929      100.46053
O         61.97585       68.87888      100.72595
C         62.24993       70.11810       97.93536
C         61.71639       70.54882       96.53436
C         62.69591       68.64370       97.88568
C         60.40375       69.88684       96.10647
H         61.35380       72.47604       98.46892
H         60.33379       69.77354       98.91339
H         63.16351       70.72605       98.12322
H         62.49395       70.32916       95.77156
H         61.55929       71.64533       96.49745
H         63.24395       68.35144       98.80152
H         61.82836       67.96489       97.75454
H         63.40631       68.49082       97.04624
H         60.50820       68.78552       96.05034
H         59.58097       70.14641       96.80314
H         60.12058       70.26162       95.10052
N         62.11452       71.01419      101.38167
C         62.73330       70.70508      102.66968
C         64.11073       71.34772      102.76294
O         64.52632       72.04195      101.84335
C         61.78980       71.08381      103.84389
C         61.31816       72.54167      103.82659
O         60.67888       70.22191      103.87796
H         61.95856       72.00731      101.15656
H         62.92406       69.61281      102.76322
H         62.33735       70.92167      104.79573
H         60.20883       70.28794      103.00708
H         60.69194       72.74210      102.93166
H         60.69574       72.73685      104.72536
H         62.18471       73.23421      103.83295
N         64.90489       71.08017      103.83702
C         66.29557       71.49731      103.95623
C         67.15023       70.24516      103.99692
O         67.97782       70.07010      103.11383
C         66.49129       72.41763      105.19080
C         67.96593       72.78060      105.41798
O         65.97956       71.81522      106.35156
H         64.52484       70.48554      104.58839
H         66.61053       72.08705      103.06458
H         65.91970       73.35239      104.97900
H         65.72023       72.54820      106.96938
H         68.56069       71.87287      105.65941
H         68.39617       73.26451      104.51650
H         68.05397       73.48249      106.27436
N         66.99459       69.32676      104.99380
C         67.77607       68.10123      105.09239
C         66.82892       66.90497      105.11559
O         65.62623       67.10708      105.22342
C         68.64408       68.24446      106.35916
C         69.77635       67.22609      106.52876
C         70.65970       67.64960      107.71404
C         71.89200       66.75381      107.86781
N         72.73857       67.22933      108.96323
H         66.30591       69.50564      105.73796
H         68.44232       68.00909      104.20729
H         67.99732       68.26278      107.26472
H         69.13699       69.23999      106.27592
H         70.39494       67.22811      105.60445
H         69.37610       66.20685      106.70365
H         70.06103       67.62883      108.65150
H         71.01531       68.69063      107.54562
H         72.48032       66.77259      106.92319
H         71.57389       65.70719      108.06718
H         73.06127       68.20613      108.77001
H         72.20896       67.20874      109.86487
H         73.57686       66.61051      109.04541
N         67.28533       65.62622      104.98382
C         66.38357       64.47397      105.01600
C         65.30203       64.55722      103.93727
O         64.14012       64.55459      104.32002
C         67.13592       63.12340      104.94726
C         68.01390       62.89319      106.18754
C         68.67706       61.54710      106.13529
O         68.41515       60.62887      107.08530
O         69.46100       61.28051      105.23831
H         68.29485       65.47147      104.85278
H         65.85905       64.47791      105.99954
H         67.75244       63.04316      104.03051
H         66.38009       62.30646      104.91926
H         67.37373       62.94197      107.09586
H         68.79756       63.67450      106.26846
N         65.53015       64.63283      102.59229
C         66.81976       64.69466      101.93890
H         67.66939       64.71010      102.63862
H         66.92582       63.82249      101.25996
H         66.87179       65.62347      101.33336
H         64.70796       64.66366      101.96865
Ca        53.56921       65.58157       93.22731
O         56.13059       67.67685       93.51119
H         55.89022       68.50997       93.03334
H         57.00592       67.87558       93.92870
O         53.65566       62.72094       93.25564
H         52.89461       62.61093       92.63216
H         53.55554       61.98485       93.90893
O         56.47844       64.13033       93.58065
H         56.44037       63.14374       93.65665
H         57.25774       64.39160       94.13253

Ca 1.0



