%chk=apoCaM-CA-Ng.loop1.water4.frame108.chk
%nprocshared=20
%mem=10GB
%nosave
#b3lyp/svp scf=(tight,noincore,xqc) Test 
#IOP(5/87=12) Density=Current Pop=(MK,readradii) iop(6/33=2) iop(6/42=6)

apoCaM-CA-Ng.loop1.water4.frame108 

   0  1 
C         48.93777       43.25107       99.67986
C         48.23540       42.33617      100.63929
O         48.66898       42.22824      101.77782
H         49.98666       42.91361       99.54770
H         48.44183       43.25699       98.68601
H         48.93266       44.28542      100.08224
N         47.12659       41.64581      100.25025
C         46.37751       40.77455      101.15159
C         47.13159       39.51532      101.58963
O         46.57118       38.76274      102.37064
C         44.96342       40.48706      100.59046
C         44.89233       39.64154       99.35176
O         44.13892       38.52660       99.36256
O         45.43625       39.99116       98.31673
H         46.76696       41.81111       99.29896
H         46.18854       41.34862      102.07473
H         44.46789       41.45904      100.37538
H         44.36921       39.99058      101.38216
N         48.41334       39.24809      101.19761
C         49.19243       38.10861      101.67794
C         50.38459       38.61700      102.48608
O         51.06703       39.49534      101.97542
C         49.75195       37.30640      100.48266
C         48.72485       36.79813       99.46503
C         47.63870       35.90072      100.06871
C         46.80174       35.19198       98.98487
N         46.17071       36.12464       98.05299
H         48.89307       39.88910      100.55292
H         48.57117       37.42831      102.28610
H         50.31294       36.43343      100.87535
H         50.47351       37.93801       99.91852
H         49.29305       36.21447       98.70790
H         48.25170       37.66578       98.95840
H         46.97738       36.51100      100.72083
H         48.11417       35.11177      100.69059
H         46.01144       34.59188       99.48134
H         47.44902       34.49100       98.41440
H         46.88945       36.60877       97.46931
H         45.53656       35.59378       97.41381
H         45.61073       36.82326       98.58148
N         50.79736       38.11481      103.69423
C         50.21901       37.02016      104.47383
C         50.05074       35.74505      103.66185
O         48.95289       35.21172      103.60153
C         48.94764       37.47649      105.20567
C         49.22929       38.57715      106.19085
O         50.35881       38.99045      106.40517
O         48.18982       39.17628      106.77185
H         51.66608       38.51697      104.08243
H         50.93282       36.75579      105.28698
H         48.49932       36.63475      105.77626
H         48.20001       37.83886      104.47236
N         51.10104       35.14677      103.03601
C         52.43712       35.71703      103.01107
C         53.39721       34.78950      102.30057
O         53.10768       34.45328      101.16098
H         50.92714       34.24785      102.55881
H         52.72370       35.94091      104.04531
H         52.42142       36.67074      102.44679
N         54.54646       34.29545      102.85026
C         55.10941       34.63640      104.15679
C         55.03213       33.45239      105.09759
O         54.59866       32.38048      104.69468
C         56.54444       35.17854      103.97393
C         57.46108       34.21257      103.27029
O         57.73286       33.01049      103.81228
O         57.96447       34.51788      102.20057
H         55.07497       33.61573      102.28085
H         54.55502       35.43966      104.65954
H         56.98754       35.44227      104.95698
H         56.48208       36.11534      103.37599
N         55.40349       33.59478      106.40218
C         55.32795       32.50945      107.36220
C         53.91237       32.06376      107.68748
O         53.79195       31.08716      108.41207
H         55.77481       34.50046      106.72653
H         55.80227       32.82583      108.31668
H         55.90753       31.64874      106.96349
N         52.80050       32.71993      107.22869
C         51.43739       32.27408      107.52409
C         50.67362       31.98126      106.24284
O         51.17309       32.25036      105.15962
C         50.68976       33.32034      108.39332
C         50.48863       34.67573      107.69906
O         51.39990       33.51134      109.59066
H         52.91074       33.56821      106.65733
H         51.46473       31.32582      108.10337
H         49.67891       32.90660      108.62202
H         50.73142       33.65003      110.31222
H         49.91040       34.55473      106.75870
H         49.91671       35.35413      108.36729
H         51.45945       35.15980      107.46925
N         49.43120       31.42161      106.31434
C         48.58658       31.16416      105.15161
C         47.26716       31.92681      105.25732
O         46.40424       31.68996      104.42645
C         48.29602       29.63207      105.00779
C         47.33301       29.08750      106.10442
C         49.61077       28.83271      104.96024
C         46.84279       27.66507      105.82433
H         49.06083       31.16607      107.24150
H         49.09678       31.48998      104.21815
H         47.78266       29.50164      104.02806
H         46.41227       29.70669      106.13371
H         47.80583       29.13487      107.10738
H         50.14186       28.89560      105.93453
H         49.42379       27.76407      104.73357
H         50.27499       29.22866      104.16414
H         46.09657       27.37457      106.59396
H         46.34779       27.62091      104.82942
H         47.67102       26.93124      105.85700
N         46.99523       32.76692      106.29908
C         45.64935       33.24836      106.60285
C         45.01109       34.11134      105.52428
O         43.79138       34.11052      105.44001
C         45.60461       33.95148      107.98854
C         46.36176       35.28636      108.00720
O         46.16023       33.11574      108.97380
H         47.73756       32.97537      106.97957
H         45.01457       32.33807      106.69678
H         44.54712       34.17307      108.25800
H         45.59866       32.29870      109.01939
H         46.30264       35.73281      109.02265
H         47.43144       35.14863      107.74956
H         45.91203       36.00597      107.29326
N         45.75652       34.90947      104.70634
C         45.21245       35.80078      103.67367
C         44.30022       36.87463      104.28062
O         44.00243       36.81466      105.46541
C         44.44305       35.00451      102.57124
C         45.20270       33.77185      102.08427
O         44.19864       35.83708      101.46776
H         46.77899       34.89816      104.82322
H         46.08316       36.30154      103.19566
H         43.47368       34.65231      102.99495
H         43.45317       35.42941      100.95312
H         45.28811       33.04514      102.90189
H         44.63507       33.27143      101.27066
H         46.21444       34.03797      101.72593
N         43.79345       37.88325      103.51353
C         42.70788       38.75027      103.96729
C         43.17175       40.09054      104.50486
O         42.30515       40.85854      104.90259
C         41.69041       38.96168      102.82207
C         41.06477       37.64318      102.35029
C         40.06014       37.88990      101.21605
C         39.43228       36.59352      100.67720
N         38.63067       35.89805      101.68629
H         44.08925       37.96114      102.53138
H         42.16088       38.26201      104.80469
H         42.18843       39.46639      101.96684
H         40.86817       39.62118      103.17784
H         40.55820       37.17081      103.21706
H         41.85609       36.96119      101.98065
H         40.59262       38.38440      100.37358
H         39.25437       38.57213      101.56504
H         40.22882       35.91629      100.29644
H         38.77373       36.86175       99.82153
H         38.16521       35.07512      101.24034
H         39.23352       35.54477      102.46240
H         37.89457       36.53683      102.06583
N         44.48553       40.44923      104.60762
C         44.86629       41.73998      105.17735
C         44.36045       42.85068      104.27118
O         44.82743       42.96976      103.14836
C         46.39494       41.81423      105.38804
C         46.87849       43.10684      106.07664
C         46.36753       43.27830      107.49059
O         45.46399       44.06362      107.72315
O         46.95526       42.61998      108.51211
H         45.21947       39.78695      104.31920
H         44.39218       41.81397      106.18102
H         46.90369       41.72333      104.40323
H         46.69351       40.94502      105.99907
H         46.58650       43.98049      105.45901
H         47.98994       43.10716      106.11401
N         43.35722       43.67348      104.67554
C         42.80340       44.68056      103.79643
H         41.96550       45.20584      104.29994
H         43.58526       45.41911      103.52140
H         42.41147       44.19916      102.87306
H         42.94679       43.55838      105.61403
Ca        48.45015       41.10157      107.86260
O         50.86059       42.15410      105.89702
H         51.43316       41.34656      105.89511
H         50.30232       42.06406      105.08419
O         49.42012       41.67366      111.27051
H         50.23132       41.56015      111.82707
H         48.67769       41.73149      111.92319
O         50.34595       38.62213      110.44611
H         49.92139       38.22461      111.24758
H         51.31833       38.54418      110.61650
O         46.73390       39.85959      110.10913
H         46.37507       39.73018      109.19518
H         46.26428       40.66281      110.44804

Ca 1.0



