%chk=apoCaM-CA-Ng.loop4.water5.frame504.chk
%nprocshared=20
%mem=10GB
%nosave
#b3lyp/svp scf=(tight,noincore,xqc) Test 
#IOP(5/87=12) Density=Current Pop=(MK,readradii) iop(6/33=2) iop(6/42=6)

apoCaM-CA-Ng.loop4.water5.frame504 

   -3  1 
C         74.87719       37.70267       51.82630
C         75.20532       37.26768       53.22291
O         75.56621       38.09378       54.04755
H         75.00947       38.79817       51.70933
H         75.53660       37.17529       51.10550
H         73.81926       37.44523       51.60145
N         75.07487       35.95685       53.55686
C         75.28843       35.40554       54.88845
C         74.33397       36.05970       55.88678
O         74.75990       36.51588       56.93964
C         76.76526       35.50534       55.35510
C         77.82990       35.03347       54.35680
O         77.52117       33.78792       53.79824
O         77.97907       35.94571       53.30606
H         74.75892       35.29984       52.82522
H         75.02901       34.32359       54.82929
H         76.86426       34.89373       56.27840
H         77.02147       36.55277       55.61938
N         73.01197       36.16686       55.57838
C         72.00170       36.77603       56.44225
C         70.92748       35.72622       56.71033
O         70.44282       35.14305       55.75090
C         71.44709       38.10069       55.82603
C         70.90384       37.94263       54.38372
C         72.53601       39.19107       55.91159
C         70.26672       39.22116       53.83327
H         72.70086       35.79664       54.66736
H         72.45276       37.07836       57.40138
H         70.60926       38.44477       56.46542
H         70.11521       37.16441       54.37505
H         71.71826       37.63428       53.69460
H         73.40586       38.93614       55.27497
H         72.14533       40.18402       55.61456
H         72.88471       39.30454       56.96074
H         69.85329       39.02042       52.82331
H         69.44168       39.55809       54.49639
H         71.01155       40.03559       53.72805
N         70.52108       35.35134       57.96111
C         70.83840       36.04419       59.20659
C         70.62716       35.15245       60.41427
O         71.56461       34.99832       61.18731
C         70.00889       37.34816       59.34557
C         68.52345       37.16209       59.15918
O         67.67341       37.44367       60.16491
O         68.07861       36.78522       58.08611
H         69.85542       34.56475       58.01416
H         71.91454       36.30690       59.25378
H         70.34767       38.09480       58.60713
H         70.19753       37.78382       60.34819
N         69.43586       34.54392       60.66784
C         69.19778       33.83051       61.90585
C         69.11723       34.83758       63.02636
O         68.25683       35.70533       62.96438
H         68.66377       34.60785       59.98955
H         69.99044       33.06479       62.06532
H         68.22169       33.30322       61.85215
N         69.97379       34.79597       64.08417
C         69.90158       35.76068       65.18127
C         70.31753       37.18535       64.79192
O         70.19164       38.05881       65.63910
C         70.65491       35.23867       66.42684
C         72.10392       34.90798       66.20467
O         72.90231       35.77315       65.89584
O         72.53370       33.64388       66.38201
H         70.65651       34.02414       64.12993
H         68.83814       35.82343       65.50599
H         70.14369       34.30753       66.75580
H         70.56572       35.97431       67.25583
N         70.76243       37.52445       63.54294
C         71.02811       38.90693       63.15809
C         72.23632       39.52896       63.82378
O         72.43540       40.72233       63.64512
H         70.85060       36.80823       62.81332
H         70.12339       39.51240       63.37862
H         71.21238       38.96449       62.06425
N         73.12788       38.78562       64.53694
C         74.35982       39.30252       65.11881
C         75.21302       39.94747       64.03720
O         75.64886       41.07836       64.19574
C         74.08521       40.26770       66.29639
C         73.29001       39.60838       67.43156
C         73.05434       40.59336       68.55010
N         73.52884       40.35943       69.79624
O         72.42369       41.61652       68.32761
H         72.97415       37.77519       64.61606
H         74.93475       38.43770       65.52142
H         73.53362       41.15875       65.92788
H         75.06031       40.60884       66.71171
H         73.85320       38.72618       67.80711
H         72.30523       39.25952       67.05587
H         74.06183       39.50427       70.01032
H         73.36298       41.03957       70.55333
N         75.46783       39.26450       62.88521
C         76.30944       39.78996       61.81202
C         77.50292       38.88263       61.61044
O         77.53308       37.78676       62.14608
C         75.50605       40.03674       60.50211
C         74.62270       38.84362       60.09643
C         74.64524       41.30027       60.63414
H         75.06300       38.32317       62.77318
H         76.75671       40.75934       62.12148
H         76.22575       40.23806       59.67844
H         73.82581       38.66438       60.85127
H         74.11848       39.05493       59.12978
H         75.22885       37.92209       59.98205
H         74.11600       41.50738       59.67945
H         73.89893       41.19625       61.44718
H         75.29432       42.17613       60.85411
N         78.57220       39.33855       60.89315
C         79.86234       38.65593       60.85594
C         80.71132       39.20569       59.71743
O         80.94078       40.40528       59.65655
C         80.64194       38.88801       62.17852
C         79.98251       38.29696       63.39923
N         79.55816       39.09118       64.41114
O         79.83161       37.08656       63.47622
H         78.49608       40.26300       60.44445
H         79.71277       37.56622       60.69254
H         80.77873       39.98264       62.32076
H         81.65178       38.42873       62.09828
H         79.67326       40.11415       64.36688
H         79.10202       38.68301       65.24069
N         81.26701       38.35192       58.81234
C         82.19385       38.78574       57.77289
C         81.43387       39.34178       56.58359
O         80.60637       38.63476       56.02575
C         83.12095       37.60849       57.40461
C         84.19125       37.99453       56.41343
C         85.51670       38.18738       56.84008
C         83.87953       38.15338       55.05361
C         86.50843       38.54486       55.92243
C         84.87387       38.50054       54.13684
C         86.19210       38.70019       54.56900
O         87.16030       39.03691       53.69398
H         81.11179       37.34057       58.94061
H         82.87357       39.56072       58.19592
H         82.55739       36.72716       57.02902
H         83.60943       37.29879       58.35652
H         85.78237       38.07328       57.88413
H         82.87034       37.99397       54.69951
H         87.52410       38.69937       56.26436
H         84.61992       38.61129       53.09104
H         86.98183       39.14667       52.74908
N         81.67952       40.61084       56.14077
C         80.96833       41.24266       55.03093
C         81.96359       41.66418       53.94352
O         83.01719       42.16664       54.30929
C         80.20110       42.45481       55.58749
C         79.24347       43.06696       54.55590
C         78.43063       44.16791       55.17022
O         77.62501       43.90699       56.21833
O         78.47990       45.29838       54.71367
H         82.39074       41.17309       56.63383
H         80.21765       40.53603       54.63831
H         80.91327       43.22464       55.96053
H         79.59178       42.09803       56.44729
H         78.53823       42.28738       54.19566
H         79.81853       43.45827       53.68934
N         81.75424       41.52583       52.59462
C         80.51992       41.08232       51.94767
C         80.00361       42.15730       51.00185
O         80.66515       43.16994       50.81142
C         80.76330       39.78402       51.15933
C         81.29287       38.65707       52.04964
C         81.45427       37.39808       51.25192
O         82.67630       36.85924       51.08291
O         80.48042       36.85893       50.74969
H         82.52897       41.79848       51.96705
H         79.71978       40.89729       52.67920
H         81.49595       39.97312       50.34266
H         79.80564       39.45506       50.70051
H         80.59701       38.46632       52.89506
H         82.27843       38.95732       52.46170
N         78.80649       41.99079       50.37083
C         78.25791       42.94090       49.42386
H         77.28946       43.32597       49.80491
H         78.93528       43.80167       49.24232
H         78.08324       42.42776       48.45461
H         78.24560       41.14916       50.56909
Ca        77.96955       34.40863       51.64953
O         79.02240       34.94756       48.50628
H         79.38815       35.74920       48.05474
H         79.15347       34.21408       47.85408
O         81.36148       34.35419       53.04862
H         81.97783       34.74751       52.38324
H         81.95447       34.05520       53.78265
O         77.47095       31.89713       50.20940
H         76.54824       32.20047       50.40177
H         77.68989       31.28001       50.95201
O         80.55714       32.64058       49.90053
H         80.09826       32.07121       49.23290
H         81.51233       32.60231       49.64370
O         79.81183       31.69890       52.94993
H         80.41363       31.85048       53.72134
H         80.37114       31.21563       52.29134

Ca 1.0



