%chk=apoCaM-CA-Ng.loop1.water3.frame1498.chk
%nprocshared=20
%mem=10GB
%nosave
#b3lyp/svp scf=(tight,noincore,xqc) Test 
#IOP(5/87=12) Density=Current Pop=(MK,readradii) iop(6/33=2) iop(6/42=6)

apoCaM-CA-Ng.loop1.water3.frame1498 

   0  1 
C         65.40488       87.53281       47.12042
C         66.87798       87.37974       47.34627
O         67.42268       88.07680       48.18691
H         64.98296       88.31986       47.77904
H         65.21378       87.80913       46.06385
H         64.89540       86.57429       47.35274
N         67.58185       86.43966       46.65559
C         68.99491       86.17239       46.91064
C         69.95221       87.17333       46.26540
O         71.11910       87.13538       46.63146
C         69.37621       84.72090       46.53281
C         69.30504       84.41352       45.05668
O         68.13886       84.48682       44.38784
O         70.30801       84.05014       44.46409
H         67.04593       85.81991       46.03402
H         69.13979       86.23150       48.01411
H         68.70799       84.01802       47.07557
H         70.41441       84.52981       46.88578
N         69.57668       88.05480       45.28343
C         70.52276       88.99634       44.67455
C         70.00694       90.44507       44.69017
O         69.98244       91.06097       43.63104
C         70.80822       88.57515       43.21038
C         71.48394       87.20696       43.06670
C         71.67466       86.79735       41.59188
C         72.55926       87.76623       40.78343
N         72.74063       87.29033       39.41242
H         68.61011       88.03516       44.92568
H         71.49096       88.99237       45.21884
H         71.49068       89.33096       42.76898
H         69.85073       88.57328       42.64238
H         70.84693       86.43783       43.54657
H         72.46761       87.22249       43.58433
H         70.67875       86.72061       41.10281
H         72.14467       85.79022       41.57751
H         73.55297       87.86130       41.27393
H         72.08960       88.77165       40.73860
H         73.33076       87.97627       38.88780
H         73.22064       86.36154       39.41342
H         71.81376       87.21013       38.93394
N         69.56483       91.10911       45.79561
C         69.35089       90.53997       47.11993
C         70.61981       90.16218       47.87769
O         71.72079       90.50545       47.47346
C         68.35233       91.42117       47.91352
C         68.66864       92.89491       47.95221
O         69.66711       93.38935       48.70098
O         67.97310       93.66631       47.30963
H         69.23399       92.07093       45.62379
H         68.80273       89.60005       46.97193
H         68.17507       91.02906       48.93500
H         67.39402       91.33861       47.35314
N         70.50009       89.33674       48.96056
C         71.59880       88.75251       49.71817
C         72.29005       89.74253       50.66387
O         71.31532       90.36968       51.43245
H         69.55557       89.01906       49.21729
H         72.32512       88.26206       49.03591
H         71.16568       87.95783       50.36743
N         73.19658       88.99666       51.55360
C         73.64765       89.72812       52.76119
C         74.02375       88.73347       53.85272
O         74.41491       87.62203       53.52519
C         74.84241       90.66080       52.45725
C         74.46814       91.77802       51.52932
O         73.51190       92.65885       51.88400
O         75.04352       91.90662       50.46128
H         74.00465       88.60473       51.01566
H         72.81577       90.32975       53.16671
H         75.67692       90.06419       52.02825
H         75.21847       91.12960       53.38714
N         73.97677       89.04634       55.18524
C         73.50174       90.31638       55.71525
C         71.99887       90.47620       55.60723
O         71.29868       89.51891       55.31276
H         74.31878       88.34802       55.86387
H         74.02360       91.15067       55.21161
H         73.74924       90.39022       56.79626
N         71.44429       91.69705       55.84841
C         70.00477       91.97163       55.84755
C         69.37663       91.58135       54.51235
O         69.95555       91.87237       53.47778
C         69.70697       93.46417       56.16600
C         70.34941       93.96227       57.47871
O         68.31588       93.67384       56.21511
H         72.09955       92.46705       56.03813
H         69.53500       91.37144       56.65854
H         70.11067       94.09432       55.34901
H         67.97619       93.27073       57.05819
H         70.05021       95.01577       57.66143
H         70.02239       93.34217       58.33979
H         71.45629       93.95100       57.43774
N         68.18803       90.90324       54.48751
C         67.53342       90.32471       53.30905
C         67.22321       91.34251       52.21417
O         68.13999       91.82064       51.56333
C         68.37150       89.13694       52.74044
C         68.61156       88.06278       53.83115
C         67.69872       88.51272       51.49820
C         69.62529       86.99377       53.41466
H         67.71519       90.73894       55.38933
H         66.56690       89.89308       53.65500
H         69.35074       89.53699       52.43364
H         67.64897       87.58396       54.11354
H         69.02602       88.54325       54.73929
H         66.70561       88.09078       51.75931
H         67.56264       89.26784       50.69905
H         68.32621       87.71544       51.05409
H         69.78895       86.29419       54.26072
H         69.26897       86.39868       52.55132
H         70.59707       87.46921       53.15823
N         65.92987       91.63078       51.88801
C         65.54664       92.38108       50.69289
C         64.83652       93.68582       51.00682
O         64.36216       94.31560       50.07154
C         64.65051       91.48373       49.79121
C         63.25973       91.20001       50.37555
O         65.28630       90.25568       49.55888
H         65.17776       91.24151       52.47488
H         66.44365       92.64355       50.08948
H         64.47229       92.00726       48.82055
H         65.90954       90.39127       48.80376
H         62.69614       92.14338       50.53491
H         62.68030       90.57823       49.66041
H         63.32505       90.65105       51.33564
N         64.73579       94.17393       52.27799
C         63.97184       95.37753       52.58656
C         64.92130       96.55113       52.73171
O         65.68368       96.60942       53.68472
C         63.06752       95.14062       53.81573
C         62.04419       94.03123       53.52286
O         63.85814       94.78097       54.92103
H         65.22929       93.69838       53.04628
H         63.29567       95.61585       51.73644
H         62.52195       96.08593       54.03723
H         63.26509       94.77915       55.71666
H         62.55245       93.07208       53.28366
H         61.39150       93.86989       54.40611
H         61.40268       94.31953       52.66297
N         64.96686       97.48219       51.73043
C         65.91863       98.58000       51.60979
C         67.35517       98.11150       51.51650
O         67.75963       97.18519       52.20042
C         65.75820       99.72120       52.62331
C         64.40200      100.43043       52.46109
C         64.46190      101.85564       53.02548
C         63.14512      102.60655       52.79071
N         63.28319      104.01886       53.14596
H         64.31961       97.37033       50.93507
H         65.71259       99.05784       50.62394
H         66.55230      100.45625       52.35878
H         65.93021       99.40270       53.67375
H         63.59407       99.82245       52.92296
H         64.17622      100.54427       51.37735
H         65.26718      102.40020       52.48205
H         64.70987      101.84436       54.10834
H         62.33920      102.13694       53.39619
H         62.86040      102.54179       51.71618
H         63.99387      104.47127       52.52428
H         62.36595      104.50006       53.00505
H         63.57636      104.11840       54.14430
N         68.19833       98.74993       50.66248
C         69.56560       98.32360       50.42518
C         69.57846       96.94627       49.78221
O         70.26565       96.08384       50.31018
C         70.32745       99.34909       49.55929
C         70.47793      100.69347       50.28796
C         71.16312      101.70052       49.41257
O         72.40789      101.46742       48.95514
O         70.59379      102.73772       49.11184
H         67.83946       99.56238       50.13739
H         70.11629       98.27182       51.39324
H         69.80924       99.51914       48.59927
H         71.34416       98.95357       49.33904
H         71.07279      100.55054       51.21599
H         69.48017      101.08911       50.57417
N         68.85762       96.61007       48.67067
C         67.91329       97.45392       47.96762
H         67.08177       97.75272       48.63648
H         68.40477       98.33733       47.52864
H         67.46061       96.88171       47.12960
H         68.95851       95.65726       48.31212
Ca        70.67889       92.10445       50.18842
O         72.76515       93.51507       48.46063
H         73.06821       92.74847       49.00718
H         72.12308       93.11772       47.82112
O         71.72939       95.14108       53.06882
H         71.34149       95.44205       53.92773
H         71.96261       95.98192       52.60180
O         68.39284       94.44182       52.47945
H         67.82529       94.05877       53.19406
H         69.02323       95.03328       52.95942

Ca 1.0



