%chk=apoCaM-CA-Ng.loop2.water3.frame627.chk
%nprocshared=20
%mem=10GB
%nosave
#b3lyp/svp scf=(tight,noincore,xqc) Test 
#IOP(5/87=12) Density=Current Pop=(MK,readradii) iop(6/33=2) iop(6/42=6)

apoCaM-CA-Ng.loop2.water3.frame627 

   -2  1 
C         79.73447       38.52668        5.94323
C         79.33114       39.82397        6.57990
O         78.26343       39.89411        7.17105
H         80.68919       38.17448        6.38763
H         78.95811       37.74838        6.10503
H         79.87209       38.67239        4.85133
N         80.14899       40.90925        6.48890
C         79.82992       42.19926        7.09259
C         79.76557       42.05375        8.60415
O         80.74300       41.62430        9.19663
C         80.88983       43.24446        6.68982
C         80.54395       44.61760        7.19425
O         79.50656       45.15813        6.84400
O         81.38460       45.26432        8.02328
H         81.02902       40.80828        5.95832
H         78.85130       42.54304        6.68816
H         80.95098       43.29327        5.58044
H         81.88690       42.93906        7.07683
N         78.64020       42.39203        9.29451
C         78.49329       42.16692       10.73644
C         78.38498       40.66529       11.01373
O         78.20577       39.92658       10.05529
C         77.21211       42.88405       11.20187
H         77.85831       42.81396        8.76868
H         79.37041       42.60560       11.26058
H         76.32744       42.47659       10.66588
H         77.01665       42.79573       12.28197
H         77.29174       43.96804       10.97164
N         78.42556       40.08727       12.25306
C         78.71920       40.73250       13.52970
C         80.20938       40.91889       13.75717
O         80.97657       39.99348       13.53512
C         78.10495       39.93225       14.71106
C         78.57475       38.50977       14.92487
O         79.38825       37.97715       14.18810
O         78.07093       37.80831       15.95744
H         78.24057       39.07389       12.27965
H         78.21046       41.70658       13.60521
H         77.00266       39.90148       14.57239
H         78.30996       40.49579       15.64840
N         80.66659       42.06627       14.33067
C         82.04192       42.25424       14.76861
C         82.65786       43.48820       14.16231
O         82.02464       44.12202       13.32960
H         79.99427       42.81802       14.54784
H         82.68178       41.37766       14.53026
H         82.01825       42.38028       15.87060
N         83.89232       43.93736       14.52739
C         84.76504       43.32488       15.52719
C         86.10792       42.94761       14.91644
O         87.05606       42.76206       15.66604
C         84.96872       44.33109       16.68591
C         83.69407       44.58408       17.45097
N         83.09612       43.58417       18.14243
O         83.21069       45.70579       17.46845
H         84.23635       44.80210       14.07899
H         84.34669       42.39463       15.96181
H         85.36797       45.28461       16.27377
H         85.70754       43.94079       17.41962
H         83.50155       42.63668       18.15926
H         82.23238       43.75853       18.67695
N         86.27453       42.78742       13.57031
C         87.57083       42.49375       12.97766
C         88.18091       41.16091       13.38180
O         89.32632       40.93896       13.01556
H         85.47593       42.91575       12.93189
H         88.26820       43.30780       13.26984
H         87.48398       42.50398       11.86916
N         87.49638       40.21332       14.08886
C         88.07740       38.92590       14.47608
C         87.41597       37.80981       13.69138
O         86.54100       38.08829       12.88343
C         87.89656       38.68737       16.00001
C         88.55645       39.76711       16.85391
O         86.52663       38.62236       16.31813
H         86.50831       40.37856       14.33053
H         89.16362       38.89048       14.24009
H         88.40402       37.73062       16.26740
H         86.37053       37.77064       16.80521
H         88.08400       40.75016       16.67451
H         88.43167       39.51602       17.92921
H         89.64068       39.83388       16.62677
N         87.76211       36.50771       13.90330
C         87.05912       35.39947       13.27571
C         86.27039       34.70984       14.36832
O         86.87072       34.18975       15.29955
C         88.03566       34.44254       12.53354
C         87.22868       33.29601       11.86856
C         88.85338       35.23192       11.49115
C         88.07310       32.26874       11.11354
H         88.49749       36.28302       14.59030
H         86.34260       35.78394       12.52059
H         88.74818       34.00583       13.26835
H         86.49499       33.73458       11.16858
H         86.66441       32.74214       12.64869
H         89.59963       34.58291       10.99033
H         88.18678       35.67935       10.72302
H         89.42947       36.04506       11.98067
H         88.80727       31.79452       11.79747
H         87.40545       31.48091       10.70340
H         88.60329       32.72846       10.25525
N         84.90679       34.71662       14.33475
C         84.06903       34.16477       15.39031
C         83.23659       32.99009       14.89592
O         82.52685       32.42676       15.71843
C         83.19179       35.29566       15.99004
C         82.20444       35.80961       14.98188
O         82.38113       37.00788       14.40339
O         81.31188       35.08324       14.58130
H         84.43258       35.16602       13.53985
H         84.70629       33.77599       16.21447
H         83.86945       36.11968       16.30500
H         82.64072       34.94454       16.88881
N         83.28841       32.52678       13.60240
C         82.61663       31.29038       13.21897
C         82.08743       31.34726       11.77708
O         82.50644       30.53902       10.96088
C         83.61365       30.13454       13.46978
C         82.93735       28.80712       13.70203
C         82.73836       27.88603       12.66272
C         82.52204       28.47328       15.00574
C         82.12887       26.65323       12.92610
C         81.92016       27.24122       15.26460
C         81.72265       26.33091       14.22522
H         83.94214       32.94825       12.92684
H         81.74865       31.12290       13.89384
H         84.16099       30.35031       14.41518
H         84.41597       30.08809       12.70157
H         83.05554       28.11536       11.65470
H         82.67225       29.16656       15.82541
H         81.97557       25.94377       12.12412
H         81.61122       26.99292       16.27229
H         81.25765       25.37523       14.42876
N         81.14932       32.26442       11.37895
C         80.56308       32.33973       10.04181
C         81.56343       32.46071        8.91192
O         81.29175       31.95647        7.83116
C         79.72465       33.62347       10.09248
C         79.27015       33.63429       11.53022
C         80.55511       33.24890       12.25457
H         79.91109       31.44949        9.89250
H         80.38539       34.51333        9.96529
H         78.91697       33.67405        9.33033
H         78.80877       34.58039       11.88058
H         78.53105       32.80948       11.65364
H         81.25665       34.10685       12.32357
H         80.28847       32.85351       13.25656
N         82.72131       33.15951        9.07728
C         83.68295       33.36320        8.00065
C         84.19148       32.02289        7.50475
O         84.04434       31.73670        6.32462
C         84.88675       34.22913        8.43767
C         84.57226       35.69926        8.78938
C         83.80193       35.88608       10.06148
O         82.65443       36.59350       10.09576
O         84.25187       35.43859       11.10158
H         82.91618       33.54584       10.00819
H         83.18394       33.89775        7.16110
H         85.59141       34.26758        7.57749
H         85.42131       33.74235        9.27379
H         84.04985       36.19291        7.94380
H         85.54591       36.21466        8.94208
N         84.78792       31.14682        8.36250
C         85.28872       29.84855        7.95812
H         86.37099       29.78241        8.19495
H         84.74839       29.05634        8.51748
H         85.15673       29.66144        6.87143
H         84.88298       31.40124        9.35717
Ca        81.90223       36.91913       12.20262
O         83.89663       39.03606       12.54281
H         84.44246       39.22587       11.73859
H         84.26145       39.63187       13.24333
O         81.68587       39.46927       10.72449
H         81.05220       39.20764       10.01150
H         82.44083       39.89311       10.24451
O         79.16997       36.99796       10.82339
H         79.39642       37.47338        9.98597
H         78.18031       36.99406       10.84709

Ca 1.0



