%chk=apoCaM-CA-Ng.loop3.water4.frame181.chk
%nprocshared=20
%mem=10GB
%nosave
#b3lyp/svp scf=(tight,noincore,xqc) Test 
#IOP(5/87=12) Density=Current Pop=(MK,readradii) iop(6/33=2) iop(6/42=6)

apoCaM-CA-Ng.loop3.water4.frame181 

   0  1 
C         74.28167       34.53899       21.72056
C         72.92176       33.94865       21.49193
O         72.26545       33.58077       22.45351
H         75.04483       33.91535       21.20770
H         74.31991       35.57135       21.31680
H         74.52276       34.56820       22.80532
N         72.43917       33.81572       20.22342
C         71.16113       33.18919       19.88498
C         71.21986       31.71374       20.26165
O         70.42680       31.22260       21.05290
C         69.96531       33.96103       20.49150
C         69.90535       35.40838       20.05959
O         68.89725       36.18485       20.49674
O         70.74803       35.88959       19.31705
H         73.02403       34.15269       19.44289
H         71.03665       33.22550       18.77910
H         69.99867       33.92614       21.59711
H         69.02398       33.46994       20.16602
N         72.21503       30.96508       19.70911
C         72.51297       29.55193       19.97848
C         72.95532       29.25118       21.41330
O         73.26387       28.10082       21.69498
C         73.67931       29.11688       19.04750
C         74.99301       29.87430       19.37576
C         76.11259       29.56349       18.38704
C         77.34507       30.42226       18.71208
N         78.42088       30.18413       17.75413
H         72.79350       31.45711       19.01335
H         71.61014       28.94888       19.73782
H         73.37996       29.31973       17.99609
H         73.85833       28.02299       19.14042
H         75.33742       29.61893       20.40178
H         74.82648       30.96890       19.34449
H         75.76518       29.80752       17.35964
H         76.37055       28.48348       18.43690
H         77.70483       30.19254       19.74014
H         77.06403       31.49977       18.67609
H         79.23116       30.79998       17.99416
H         78.72457       29.18489       17.79847
H         78.09551       30.41601       16.78743
N         73.09030       30.23332       22.34271
C         73.72333       30.05975       23.64269
C         73.10357       28.91132       24.44292
O         71.88867       28.82527       24.54898
C         73.69413       31.41416       24.38480
C         74.53067       31.39883       25.61815
O         74.20913       30.53933       26.58339
O         75.47205       32.16294       25.75935
H         72.80541       31.18265       22.09465
H         74.79542       29.82325       23.46139
H         72.64596       31.67827       24.64387
H         74.10390       32.20204       23.71796
N         73.92278       27.98582       25.02724
C         73.48975       26.79014       25.73977
C         72.54309       27.05320       26.89293
O         71.45768       26.48997       26.87720
H         74.94006       28.12111       24.94080
H         74.38916       26.26748       26.13426
H         72.99865       26.10308       25.01635
N         72.86609       27.89596       27.91920
C         71.93353       28.20142       29.00776
C         71.16313       29.50076       28.76226
O         70.38320       29.89138       29.62105
C         72.59452       28.15643       30.40954
C         73.56080       29.31178       30.72575
N         73.55255       29.62607       32.14667
O         74.86548       28.99596       30.34043
H         73.76034       28.39487       27.87227
H         71.15046       27.41221       29.04696
H         73.08112       27.17618       30.60691
H         71.74724       28.23294       31.12588
H         72.61007       30.01184       32.38449
H         74.23239       30.40097       32.29852
N         71.24648       30.16599       27.57521
C         70.43331       31.31877       27.23230
C         70.84346       32.56671       27.97241
O         70.01392       33.16716       28.63847
H         71.84582       29.79587       26.83120
H         69.35778       31.07946       27.38986
H         70.56625       31.53600       26.15013
N         72.11568       33.03926       27.84496
C         72.58564       34.29843       28.40610
C         73.68699       34.06961       29.40995
O         74.68032       33.43928       29.07988
C         73.18529       35.21124       27.32073
C         72.17879       35.78497       26.36432
C         71.86409       37.15193       26.44723
C         71.57310       34.99820       25.37311
C         70.96100       37.72600       25.55597
C         70.67395       35.58023       24.47232
C         70.36777       36.94725       24.56123
O         69.51159       37.52526       23.69684
H         72.78380       32.48760       27.29545
H         71.75845       34.85362       28.90081
H         73.99972       34.70159       26.75860
H         73.65960       36.06312       27.85870
H         72.31722       37.77759       27.20673
H         71.81021       33.94638       25.28263
H         70.72975       38.78029       25.63702
H         70.22083       34.97213       23.70299
H         69.08887       37.02853       22.98397
N         73.60055       34.64336       30.64286
C         74.67451       34.59775       31.62077
C         74.21521       33.70605       32.74384
O         74.83785       32.67354       32.92075
C         75.08636       36.04268       32.04578
C         75.57075       36.89702       30.84006
C         76.16425       36.05054       33.14334
C         76.89768       36.44340       30.21460
H         72.74247       35.15557       30.89762
H         75.57472       34.11359       31.18769
H         74.18407       36.54744       32.45759
H         75.70866       37.94661       31.18108
H         74.78761       36.90868       30.05322
H         77.07273       35.49701       32.83121
H         76.43730       37.09395       33.40930
H         75.79815       35.57847       34.05782
H         77.73073       36.51302       30.94474
H         76.83270       35.40627       29.83649
H         77.15382       37.10944       29.36503
N         73.11063       33.97078       33.50003
C         72.61723       33.00272       34.48103
C         73.62923       32.69920       35.58104
O         73.50601       31.66028       36.21174
C         71.27981       33.44380       35.09989
O         71.44043       34.58541       35.90067
H         72.58112       34.83845       33.32322
H         72.42864       32.05869       33.92168
H         70.87965       32.62763       35.73916
H         70.51713       33.62321       34.30728
H         71.44823       35.36937       35.29361
N         74.64151       33.56991       35.86931
C         75.65400       33.37969       36.90519
C         76.58471       32.19290       36.65499
O         77.35854       31.88166       37.55372
C         74.98090       33.29575       38.28295
H         74.66842       34.45686       35.36488
H         76.29791       34.28729       36.93560
H         74.34989       32.39109       38.38475
H         75.75077       33.27218       39.08306
H         74.34909       34.19565       38.44461
N         76.60929       31.50187       35.47610
C         77.41753       30.30636       35.25775
C         78.47302       30.48167       34.17801
O         78.48729       31.49081       33.48476
C         76.48035       29.16046       34.85903
H         76.01526       31.81021       34.70237
H         77.94992       30.03138       36.19346
H         75.96811       29.40812       33.90209
H         77.03606       28.21068       34.72059
H         75.70676       29.00981       35.64038
N         79.40917       29.49935       34.00546
C         80.44158       29.44702       32.96917
C         81.45380       30.58891       33.00460
O         82.32936       30.59405       32.14786
C         79.81281       29.33047       31.56483
C         78.87516       28.12089       31.44607
C         78.37678       27.98691       30.03851
O         78.59824       26.97077       29.39933
O         77.69127       28.99444       29.47049
H         79.37452       28.68966       34.64519
H         81.02854       28.51321       33.12504
H         80.63216       29.20109       30.82178
H         79.26349       30.25912       31.31082
H         78.00481       28.24545       32.12474
H         79.41976       27.19405       31.73334
N         81.43715       31.57624       33.94300
C         82.39662       32.65998       33.91378
H         83.42983       32.25919       33.99159
H         82.29321       33.22737       32.96327
H         82.21523       33.35342       34.76121
H         80.74309       31.57617       34.70098
Ca        75.16389       30.31995       28.56021
O         78.45607       30.72112       26.73451
H         79.02410       29.91129       26.77750
H         78.80776       31.23057       25.96179
O         76.64394       28.30470       26.85710
H         77.08294       27.77303       26.14729
H         76.33766       27.63480       27.51844
O         77.00458       31.70778       30.43278
H         77.65305       32.01201       31.11349
H         76.13327       31.71267       30.90042
O         77.57051       33.46583       28.02038
H         76.90676       34.14773       27.74792
H         78.26265       33.50182       27.31418

Ca 1.0



