%chk=apoCaM-CA-Ng.loop1.water5.frame557.chk
%nprocshared=20
%mem=10GB
%nosave
#b3lyp/svp scf=(tight,noincore,xqc) Test 
#IOP(5/87=12) Density=Current Pop=(MK,readradii) iop(6/33=2) iop(6/42=6)

apoCaM-CA-Ng.loop1.water5.frame557 

   0  1 
C         79.52758       28.04773       -5.23207
C         79.67736       28.91933       -6.44311
O         78.68079       29.23825       -7.07507
H         78.46056       27.78912       -5.06122
H         80.09866       27.10697       -5.38338
H         79.91964       28.57289       -4.33685
N         80.91808       29.33535       -6.83050
C         81.19436       30.11817       -8.03516
C         80.63911       31.54409       -7.99072
O         80.77365       32.23459       -8.98895
C         80.74915       29.35245       -9.30481
C         81.40057       27.99550       -9.44085
O         81.13632       27.29903      -10.40703
O         82.27766       27.53895       -8.52368
H         81.72784       29.04150       -6.26208
H         82.29797       30.24239       -8.12024
H         81.02991       29.94547      -10.20186
H         79.64834       29.22494       -9.31664
N         80.06111       32.06878       -6.86659
C         79.66007       33.46391       -6.66291
C         78.59684       34.01013       -7.60698
O         78.28195       35.18272       -7.44387
C         80.86949       34.44457       -6.56659
C         81.61689       34.75356       -7.87598
C         82.59331       35.92571       -7.69918
C         83.40312       36.23176       -8.97323
N         82.56255       36.67808      -10.08760
H         79.94264       31.46401       -6.04323
H         79.20416       33.51307       -5.64714
H         81.58861       34.08632       -5.79846
H         80.45853       35.41003       -6.19378
H         80.87509       35.02412       -8.65505
H         82.20549       33.87213       -8.19067
H         83.31173       35.66817       -6.89111
H         82.03681       36.83891       -7.39230
H         83.98172       35.33154       -9.27666
H         84.12912       37.03936       -8.73214
H         83.17820       36.92938      -10.89463
H         81.91899       35.91798      -10.40147
H         82.01219       37.52311       -9.81035
N         77.96798       33.27329       -8.57432
C         76.98668       33.88442       -9.46746
C         75.58132       33.39958       -9.11630
O         75.36501       32.19996       -9.21517
C         77.32244       33.61323      -10.96429
C         76.38674       34.41817      -11.83599
O         75.53580       35.09150      -11.30317
O         76.45509       34.50480      -13.17073
H         78.15300       32.26428       -8.66366
H         77.04755       34.97718       -9.35761
H         77.24029       32.53123      -11.20383
H         78.36392       33.94464      -11.16845
N         74.55377       34.21302       -8.69397
C         74.57208       35.66357       -8.48699
C         73.36015       36.33622       -9.11566
O         72.33958       36.40494       -8.44405
H         73.66887       33.74298       -8.44978
H         75.49680       36.18679       -8.77796
H         74.48522       35.82503       -7.39032
N         73.38861       36.86859      -10.37986
C         72.22906       37.47779      -11.02356
C         71.76408       36.67852      -12.22134
O         72.46933       35.77957      -12.65307
C         72.51906       38.93879      -11.39004
C         73.54816       39.23860      -12.47090
O         74.25600       38.32877      -13.19032
O         73.73887       40.41581      -12.72818
H         74.25494       36.85598      -10.91887
H         71.37691       37.47382      -10.30782
H         72.83072       39.45900      -10.45766
H         71.56609       39.40262      -11.72443
N         70.53925       36.92121      -12.77354
C         69.92623       36.04859      -13.76357
C         69.22937       34.91167      -13.05533
O         68.01128       34.82331      -13.13441
H         69.94663       37.65987      -12.36254
H         70.67129       35.67029      -14.48922
H         69.17160       36.63744      -14.33264
N         69.94158       34.04328      -12.28062
C         69.33396       33.05779      -11.40370
C         69.90426       31.67200      -11.63517
O         70.86343       31.52055      -12.38294
C         69.54027       33.51309       -9.93085
C         71.01474       33.49938       -9.49659
O         69.04890       34.81842       -9.75849
H         70.95947       34.12818      -12.23963
H         68.24012       33.00921      -11.59608
H         68.99596       32.82965       -9.24477
H         68.07534       34.79330       -9.94767
H         71.44249       32.47745       -9.56715
H         71.62953       34.18653      -10.11317
H         71.09496       33.83125       -8.44026
N         69.34370       30.59846      -11.00743
C         69.83775       29.23213      -11.15327
C         69.74225       28.78539      -12.61704
O         70.40085       27.82406      -12.97880
C         69.04519       28.23658      -10.21824
C         69.26970       28.44847       -8.68909
C         69.39574       26.75778      -10.50072
C         68.78585       29.76548       -8.08858
H         68.51256       30.77485      -10.42759
H         70.91274       29.22040      -10.86043
H         67.95907       28.34607      -10.43624
H         70.34392       28.31214       -8.43824
H         68.69264       27.66042       -8.15510
H         70.47859       26.57097      -10.33606
H         68.81148       26.08464       -9.83792
H         69.11598       26.45558      -11.52898
H         68.89252       29.72275       -6.98409
H         69.40272       30.61592       -8.43354
H         67.71168       29.92693       -8.32554
N         68.92085       29.42277      -13.50406
C         68.69771       28.95695      -14.86680
C         67.22530       28.64460      -15.04499
O         66.38438       29.21636      -14.36906
C         69.17164       30.01488      -15.88849
C         70.70099       30.14264      -15.88201
O         68.73271       29.70546      -17.18974
H         68.37901       30.24293      -13.20433
H         69.25895       28.01673      -15.06253
H         68.72474       30.99505      -15.61323
H         69.11028       28.82232      -17.43946
H         71.16357       29.17704      -16.18544
H         71.01803       30.92420      -16.60308
H         71.07646       30.41067      -14.87395
N         66.86394       27.65996      -15.91211
C         65.48575       27.23356      -16.10018
C         65.49503       25.86730      -16.75837
O         65.01606       24.92022      -16.14759
C         64.67008       28.30224      -16.88278
C         63.20284       27.89364      -17.04912
O         65.24064       28.53273      -18.14597
H         67.61374       27.15666      -16.40863
H         65.01922       27.09973      -15.09790
H         64.69344       29.24630      -16.29070
H         65.02764       29.46774      -18.40325
H         62.64767       28.69318      -17.58485
H         63.11609       26.95465      -17.63589
H         62.73208       27.74638      -16.05419
N         66.05490       25.68527      -17.98505
C         66.14418       24.39546      -18.64526
C         67.59798       24.13544      -18.98980
O         68.18809       24.92517      -19.71685
C         65.22070       24.42929      -19.86645
C         65.12080       23.08688      -20.59560
C         64.04787       23.18649      -21.68547
C         63.89375       21.87636      -22.46026
N         62.83971       22.00065      -23.46704
H         66.44005       26.49850      -18.48806
H         65.77101       23.58829      -17.97614
H         65.54374       25.22534      -20.57318
H         64.20530       24.69099      -19.49080
H         64.82859       22.29148      -19.87425
H         66.10545       22.82538      -21.04038
H         64.31568       24.00010      -22.39448
H         63.07336       23.43622      -21.20863
H         63.63440       21.05311      -21.75774
H         64.85623       21.62718      -22.95916
H         63.06854       22.77263      -24.13496
H         62.76206       21.10376      -23.99767
H         61.92324       22.20016      -23.00304
N         68.25501       23.06365      -18.46434
C         69.68025       22.82899      -18.66630
C         70.50216       23.99747      -18.11303
O         71.23414       24.58429      -18.89707
C         70.08801       21.45229      -18.08960
C         71.58981       21.16157      -18.22847
C         71.90556       19.77257      -17.75048
O         71.63656       19.41499      -16.47978
O         72.40951       18.96142      -18.51079
H         67.72444       22.40172      -17.87629
H         69.87645       22.76101      -19.76179
H         69.51942       20.67591      -18.64865
H         69.79953       21.35634      -17.02812
H         72.17298       21.88497      -17.61864
H         71.89568       21.26744      -19.29231
N         70.45105       24.44611      -16.82279
C         69.61677       23.89840      -15.77567
H         68.54658       23.94855      -16.05995
H         69.91677       22.86386      -15.53378
H         69.74764       24.49450      -14.84759
H         71.03559       25.25914      -16.57125
Ca        75.01848       36.21821      -13.66466
O         77.65391       37.36300      -13.88448
H         78.40026       37.64368      -13.29877
H         77.34760       38.19798      -14.31937
O         76.25043       35.20919      -16.30686
H         76.98267       35.44895      -16.92846
H         75.90781       34.34434      -16.64583
O         73.86521       33.32375      -14.72373
H         73.81873       32.53829      -14.12288
H         73.23486       33.11285      -15.45753
O         72.73930       36.11936      -16.10585
H         72.11857       36.88608      -16.19357
H         72.20053       35.33215      -16.37126
O         75.07277       38.33205      -15.98307
H         74.47217       38.25554      -16.76568
H         74.91245       39.24516      -15.63523

Ca 1.0



