%chk=apoCaM-CA-Ng.loop1.water5.frame554.chk
%nprocshared=20
%mem=10GB
%nosave
#b3lyp/svp scf=(tight,noincore,xqc) Test 
#IOP(5/87=12) Density=Current Pop=(MK,readradii) iop(6/33=2) iop(6/42=6)

apoCaM-CA-Ng.loop1.water5.frame554 

   0  1 
C         80.98919       51.32530       70.30779
C         80.59712       50.52116       69.10374
O         79.51063       50.71045       68.57738
H         81.91218       51.90091       70.08067
H         80.18590       52.03696       70.59146
H         81.19033       50.64603       71.16275
N         81.46884       49.60425       68.60369
C         81.23937       48.78603       67.41825
C         81.06584       49.65209       66.17772
O         80.19780       49.38389       65.35806
C         80.08286       47.78219       67.63242
C         80.34087       46.88820       68.81385
O         79.49108       46.88701       69.85867
O         81.31640       46.15417       68.82925
H         82.37825       49.49145       69.07912
H         82.16878       48.19733       67.24667
H         79.96614       47.14163       66.73172
H         79.12892       48.32919       67.78878
N         81.90558       50.71032       65.97926
C         81.96683       51.55054       64.78545
C         80.69625       52.30609       64.41923
O         80.76292       53.03298       63.43548
C         82.41582       50.72547       63.56008
C         83.77198       50.04867       63.77720
C         84.24982       49.39102       62.47927
C         85.61820       48.73035       62.66856
N         86.09923       48.16565       61.40879
H         82.60248       50.91682       66.71107
H         82.74804       52.32417       64.96312
H         82.51874       51.41728       62.69427
H         81.65187       49.96148       63.29758
H         83.68881       49.28760       64.58364
H         84.51684       50.81644       64.08170
H         84.33379       50.17242       61.69142
H         83.51096       48.62863       62.14754
H         85.53784       47.92503       63.43213
H         86.34981       49.48754       63.02924
H         85.42778       47.44585       61.05563
H         86.20912       48.92446       60.69674
H         87.02941       47.71649       61.56862
N         79.51612       52.21766       65.10235
C         78.30702       52.86205       64.59224
C         77.17497       52.75356       65.61049
O         76.83825       51.62778       65.95289
C         77.87797       52.17918       63.25899
C         76.78914       52.92661       62.55244
O         76.31391       54.06104       63.08376
O         76.37350       52.53828       61.47270
H         79.46765       51.68856       65.98287
H         78.56525       53.91410       64.38722
H         77.56038       51.13123       63.45089
H         78.72538       52.14418       62.54682
N         76.52518       53.81689       66.17874
C         76.72910       55.24176       65.92772
C         75.40400       55.92141       65.65905
O         74.51019       55.75341       66.47789
H         75.81929       53.58791       66.89721
H         77.44905       55.47210       65.12696
H         77.12604       55.68567       66.86541
N         75.20156       56.76072       64.59198
C         73.93269       57.47717       64.45235
C         72.76198       56.54357       64.17320
O         72.96493       55.38894       63.82675
C         73.98828       58.71072       63.50827
C         74.08780       58.59654       61.99787
O         74.26135       57.45322       61.30639
O         73.99338       59.63059       61.35574
H         75.98029       56.96206       63.94688
H         73.74430       57.92968       65.45322
H         74.81770       59.36775       63.85021
H         73.04388       59.26925       63.68665
N         71.48675       56.97589       64.37758
C         70.30766       56.14688       64.17112
C         70.16869       54.95247       65.11016
O         69.16879       54.26091       64.97983
H         71.33583       57.94992       64.68101
H         70.29291       55.79249       63.11870
H         69.40836       56.78213       64.32768
N         71.09051       54.63900       66.07040
C         70.95092       53.51077       66.99290
C         72.04150       52.48094       66.75771
O         73.16757       52.86245       66.47334
C         70.94202       53.99438       68.46429
C         72.23339       54.70300       68.90553
O         69.85237       54.86098       68.64766
H         71.93087       55.21825       66.16849
H         69.97810       52.99483       66.83534
H         70.80803       53.08724       69.10126
H         69.61365       54.82730       69.61085
H         72.15505       54.98192       69.97734
H         73.11380       54.03726       68.79354
H         72.40128       55.63439       68.32757
N         71.78280       51.14811       66.92575
C         72.79101       50.10317       66.73382
C         72.37252       49.03996       65.71840
O         73.22318       48.22922       65.37828
C         73.18976       49.45037       68.09045
C         71.97366       48.80075       68.80368
C         73.89124       50.49382       68.97959
C         72.34930       48.01719       70.06274
H         70.84099       50.87386       67.24162
H         73.71405       50.55469       66.30673
H         73.93790       48.65453       67.87411
H         71.48507       48.08473       68.10852
H         71.23009       49.57656       69.08450
H         73.19709       51.31560       69.25391
H         74.28861       50.03306       69.90549
H         74.76153       50.92673       68.44030
H         73.07294       47.21256       69.81386
H         72.78296       48.67804       70.83982
H         71.43635       47.55285       70.49185
N         71.11413       48.96432       65.18659
C         70.74827       47.99800       64.15209
C         69.69420       47.01926       64.64223
O         68.81283       47.39147       65.40362
C         70.23250       48.73951       62.89680
C         71.31317       49.64662       62.30299
O         69.84203       47.80439       61.92214
H         70.38331       49.62002       65.49357
H         71.63079       47.39836       63.83693
H         69.35441       49.36017       63.19801
H         69.15972       48.24657       61.35177
H         70.91307       50.16635       61.40737
H         71.63343       50.41267       63.03923
H         72.19599       49.04419       61.99829
N         69.67753       45.76144       64.11221
C         68.63939       44.76672       64.35520
C         69.23976       43.44343       64.81708
O         68.79352       42.91338       65.82544
C         67.81730       44.58310       63.05221
C         66.66312       43.58773       63.22247
O         68.64523       44.16197       61.99738
H         70.40658       45.52726       63.42289
H         67.92259       45.12345       65.12933
H         67.37733       45.58104       62.81133
H         68.27918       44.55402       61.16192
H         65.98744       43.91531       64.04063
H         66.07521       43.53156       62.28183
H         67.04581       42.57098       63.45311
N         70.23126       42.83493       64.10338
C         70.70681       41.47982       64.36658
C         72.05245       41.28207       63.68841
O         72.16280       41.52445       62.49324
C         69.64124       40.48503       63.85608
C         70.02130       39.00789       64.04063
C         68.84198       38.10868       63.62638
C         69.12463       36.60544       63.78036
N         70.12561       36.12587       62.82587
H         70.62834       43.33363       63.29469
H         70.84957       41.33342       65.46042
H         69.44765       40.67170       62.77584
H         68.69821       40.67777       64.41192
H         70.26223       38.81539       65.10869
H         70.91706       38.78770       63.42362
H         68.54426       38.31683       62.57519
H         67.97923       38.35648       64.28345
H         68.17388       36.05789       63.59310
H         69.44697       36.38160       64.82123
H         69.80756       36.31913       61.84800
H         71.05224       36.57550       62.99536
H         70.23429       35.09231       62.94131
N         73.13306       40.85416       64.40470
C         74.47052       40.79215       63.83101
C         74.98802       42.20458       63.56347
O         75.28299       42.48122       62.40984
C         75.44927       39.96535       64.69603
C         75.06159       38.47920       64.72885
C         76.07138       37.68264       65.50528
O         76.28304       37.94414       66.80935
O         76.70302       36.79213       64.95878
H         73.00273       40.58009       65.39080
H         74.42181       40.25138       62.85740
H         75.50341       40.33918       65.73217
H         76.46229       40.03879       64.24038
H         75.01630       38.09141       63.68661
H         74.06285       38.34847       65.19598
N         75.11600       43.18252       64.51316
C         74.78418       43.05181       65.91751
H         73.71860       42.77725       66.04807
H         75.44718       42.32664       66.41980
H         74.94488       44.02463       66.42946
H         75.45709       44.10753       64.20760
Ca        74.99049       55.47305       62.00442
O         72.05857       55.80275       60.46597
H         72.03962       55.53984       59.51188
H         71.10964       55.95486       60.70202
O         72.08449       52.89223       61.18370
H         71.58422       52.50289       60.42337
H         72.70047       52.17156       61.46611
O         76.21317       55.28559       59.15639
H         76.44194       56.24688       59.22028
H         77.08557       54.81889       59.19456
O         73.71109       53.44556       58.34287
H         72.74357       53.26021       58.24382
H         73.98975       53.78367       57.45496
O         73.87889       52.12383       63.79773
H         74.21353       52.98957       64.14066
H         74.61110       51.48413       63.98180

Ca 1.0



