%chk=apoCaM-CA-Ng.loop3.water2.frame626.chk
%nprocshared=20
%mem=10GB
%nosave
#b3lyp/svp scf=(tight,noincore,xqc) Test 
#IOP(5/87=12) Density=Current Pop=(MK,readradii) iop(6/33=2) iop(6/42=6)

apoCaM-CA-Ng.loop3.water2.frame626 

   0  1 
C         86.13835       41.32615      -22.40137
C         86.30690       41.82914      -23.80116
O         86.16532       43.02643      -24.00601
H         86.86204       41.85387      -21.74338
H         85.10771       41.53579      -22.04877
H         86.33335       40.23610      -22.33526
N         86.62804       40.97682      -24.81806
C         86.90702       41.43881      -26.16874
C         85.90765       40.84850      -27.15201
O         85.85212       39.63490      -27.29975
C         88.35916       41.05845      -26.52279
C         88.87493       41.73589      -27.75712
O         90.13909       41.50905      -28.15897
O         88.17690       42.51924      -28.37711
H         86.72199       39.96850      -24.61956
H         86.83573       42.54789      -26.20268
H         88.45039       39.95514      -26.62501
H         89.02096       41.37412      -25.69363
N         85.06678       41.66691      -27.84901
C         84.07571       41.17922      -28.80633
C         84.73196       40.54871      -30.02841
O         84.10813       39.69017      -30.63707
C         83.14766       42.34222      -29.22692
C         81.98396       41.93161      -30.14735
C         81.11125       43.15173      -30.47444
C         79.95147       42.78909      -31.41114
N         79.15062       43.97268      -31.72658
H         85.11376       42.68096      -27.66529
H         83.44686       40.41750      -28.29078
H         83.75508       43.12608      -29.73076
H         82.71035       42.77877      -28.30127
H         81.36503       41.15617      -29.64396
H         82.38019       41.51529      -31.09746
H         81.74078       43.92518      -30.96654
H         80.69875       43.57416      -29.53172
H         79.30391       42.02466      -30.92687
H         80.35580       42.36091      -32.35530
H         79.74338       44.69122      -32.20295
H         78.37103       43.70069      -32.36793
H         78.74414       44.37710      -30.85173
N         85.97398       40.93287      -30.45612
C         86.62672       40.36293      -31.63173
C         87.83434       39.50583      -31.27384
O         88.41077       38.92136      -32.18153
C         86.90453       41.44313      -32.70701
C         87.87917       42.58963      -32.40925
O         87.47784       43.42398      -31.36177
O         89.18521       42.16221      -32.15871
H         86.47928       41.65250      -29.92762
H         85.93302       39.64966      -32.12825
H         85.93341       41.90860      -32.98050
H         87.28572       40.93367      -33.61807
N         88.21142       39.28358      -29.97898
C         89.18803       38.26954      -29.61344
C         90.59974       38.50803      -30.10293
O         91.39084       37.58285      -29.98984
H         87.71225       39.74748      -29.21058
H         88.83271       37.30315      -30.03349
H         89.22118       38.15421      -28.50762
N         91.02003       39.70166      -30.61292
C         92.38806       39.88444      -31.09745
C         92.81664       41.34027      -31.19671
O         92.03952       42.25287      -30.96514
C         92.57968       39.16947      -32.46652
C         93.40308       37.91229      -32.35072
N         92.91335       36.71354      -32.73827
O         94.54741       37.98669      -31.92700
H         90.36879       40.49696      -30.61823
H         93.09108       39.48942      -30.32866
H         93.13355       39.81859      -33.17855
H         91.59036       38.98519      -32.94220
H         91.95726       36.62586      -33.10985
H         93.50159       35.86906      -32.67310
N         94.12255       41.59817      -31.49409
C         94.72338       42.91668      -31.54360
C         94.66870       43.59216      -30.19765
O         94.96413       42.95290      -29.19692
H         94.75155       40.79985      -31.67114
H         94.25447       43.53697      -32.33739
H         95.79659       42.78796      -31.80277
N         94.35747       44.91453      -30.10397
C         94.29744       45.61877      -28.82658
C         93.05414       45.21957      -28.04717
O         92.27222       44.41465      -28.53386
C         94.37607       47.14759      -29.05632
C         95.72506       47.54254      -29.62419
C         95.82896       48.16287      -30.88035
C         96.90004       47.29808      -28.88628
C         97.08328       48.52304      -31.38946
C         98.14949       47.65479      -29.39792
C         98.24598       48.26878      -30.65288
O         99.44661       48.61888      -31.15765
H         94.20944       45.44582      -30.97587
H         95.17322       45.32788      -28.20808
H         94.26211       47.69636      -28.09908
H         93.54348       47.46118      -29.72413
H         94.94258       48.36781      -31.46674
H         96.85409       46.83095      -27.91093
H         97.15257       49.00045      -32.35864
H         99.04104       47.45417      -28.81628
H        100.27272       48.45815      -30.67868
N         92.84190       45.72732      -26.79608
C         91.74992       45.35361      -25.89851
C         90.38482       45.72542      -26.46417
O         89.99670       45.22705      -27.50954
C         91.83542       43.85103      -25.49614
C         90.68249       43.40649      -24.55332
C         93.20603       43.54209      -24.86351
C         90.58501       44.15216      -23.21886
H         93.52977       46.39716      -26.42027
H         91.89568       45.93357      -24.96143
H         91.74517       43.22273      -26.40761
H         90.80511       42.32346      -24.33434
H         89.71332       43.53197      -25.08091
H         93.27298       42.46815      -24.59000
H         94.02655       43.75792      -25.57976
H         93.37686       44.15635      -23.95480
H         91.50859       44.03213      -22.61890
H         90.38631       45.22940      -23.37239
H         89.73621       43.73789      -22.63483
N         89.57390       46.56265      -25.75686
C         88.22057       46.92411      -26.15740
C         88.03540       48.43374      -26.23305
O         86.91725       48.85982      -26.49389
C         87.23348       46.30696      -25.15646
O         87.46641       46.80361      -23.86668
H         89.90877       46.93027      -24.85417
H         87.97339       46.50260      -27.15686
H         87.37585       45.20221      -25.17224
H         86.18933       46.53872      -25.46395
H         86.94458       46.22651      -23.25103
N         89.07410       49.30558      -26.05934
C         88.92597       50.75353      -26.15510
C         89.53660       51.23085      -27.46331
O         90.25310       50.45640      -28.08520
C         89.59293       51.40025      -24.93286
H         90.02870       48.94354      -25.91628
H         87.84904       51.01978      -26.17275
H         89.10102       51.04509      -24.00195
H         90.66818       51.12262      -24.88962
H         89.53989       52.50140      -24.95613
N         89.25600       52.43991      -28.03373
C         88.31037       53.43328      -27.52661
C         88.73857       54.83528      -27.94773
O         89.29480       54.97281      -29.02853
C         86.92440       53.16454      -28.12336
H         89.63800       52.58736      -28.98123
H         88.19741       53.36042      -26.43429
H         86.95428       53.22482      -29.23202
H         86.56417       52.15616      -27.83236
H         86.19010       53.91012      -27.74874
N         88.42103       55.96110      -27.24648
C         87.75768       55.99340      -25.94900
C         88.71872       55.52074      -24.88129
O         88.39141       54.59561      -24.15177
C         87.26379       57.42253      -25.63179
C         86.15954       57.85348      -26.61563
C         85.65690       59.23326      -26.30992
O         86.41034       60.19144      -26.37469
O         84.36398       59.42313      -25.98384
H         88.67209       56.86373      -27.68130
H         86.85187       55.34754      -25.95698
H         88.11313       58.14022      -25.66723
H         86.83416       57.43866      -24.60536
H         85.31228       57.13601      -26.54397
H         86.53520       57.84173      -27.66047
N         89.94021       56.10648      -24.74422
C         90.90543       55.65484      -23.76684
H         91.83472       56.25822      -23.84722
H         90.49239       55.76540      -22.74251
H         91.16015       54.58927      -23.95345
H         90.20548       56.88315      -25.36866
Ca        89.54598       43.59539      -30.43478
O         89.20755       46.66753      -29.97726
H         88.25537       46.82536      -30.19758
H         89.46820       47.44439      -29.42144
O         91.44898       45.34967      -31.92553
H         92.23222       45.35103      -32.53037
H         90.70964       45.71299      -32.47492

Ca 1.0



