%chk=apoCaM-CA-Ng.loop4.water3.frame134.chk
%nprocshared=20
%mem=10GB
%nosave
#b3lyp/svp scf=(tight,noincore,xqc) Test 
#IOP(5/87=12) Density=Current Pop=(MK,readradii) iop(6/33=2) iop(6/42=6)

apoCaM-CA-Ng.loop4.water3.frame134 

   -3  1 
C         54.79143       47.10281       10.80471
C         55.63269       46.19160       11.64530
O         55.97426       45.11232       11.18681
H         53.83640       47.32068       11.32490
H         55.34158       48.05185       10.63070
H         54.57073       46.63801        9.81934
N         56.04040       46.59112       12.88482
C         56.92921       45.82067       13.74854
C         58.23968       45.54699       13.02805
O         58.63063       44.40870       12.82403
C         56.20681       44.65042       14.46647
C         55.51940       43.62642       13.61939
O         56.16523       42.87460       12.91631
O         54.18068       43.48650       13.68955
H         55.76072       47.52925       13.20980
H         57.21863       46.47082       14.60530
H         55.42414       45.11254       15.10766
H         56.92213       44.13301       15.14294
N         58.97910       46.63454       12.66208
C         60.29682       46.66679       12.03766
C         61.33769       45.99236       12.91615
O         62.01744       46.70088       13.64614
C         60.31006       46.20845       10.55218
C         61.71357       46.38004        9.90545
C         59.24343       46.95768        9.73302
C         62.26695       47.81404        9.90739
H         58.58350       47.55984       12.89402
H         60.55931       47.74780       12.02145
H         60.04824       45.13107       10.49212
H         61.65393       46.02725        8.85646
H         62.44868       45.73156       10.42790
H         59.27895       46.63434        8.67277
H         58.22841       46.73217       10.12043
H         59.39291       48.05571        9.77126
H         62.43105       48.18760       10.93778
H         63.25124       47.83218        9.39468
H         61.58909       48.51020        9.37541
N         61.55118       44.64364       12.87749
C         62.50039       43.96616       13.75204
C         63.81460       43.63721       13.02927
O         64.81975       44.16933       13.48122
C         61.83167       42.76471       14.45430
C         60.66927       43.15650       15.33634
O         60.29131       44.44309       15.47490
O         60.06128       42.29054       15.94424
H         61.01825       44.07237       12.21163
H         62.79853       44.65446       14.57673
H         62.58514       42.25637       15.09360
H         61.44940       42.04226       13.71172
N         63.97396       42.82727       11.93571
C         62.91851       42.10492       11.24281
C         63.41900       41.30732       10.03429
O         64.60224       41.37246        9.73255
H         64.94000       42.73585       11.58683
H         62.18594       42.83978       10.87284
H         62.46901       41.40750       11.95507
N         62.60199       40.54241        9.23975
C         61.16872       40.29966        9.41347
C         60.41783       41.62104        9.47024
O         59.80953       41.91454       10.48903
C         60.90368       39.35206       10.60749
C         61.65615       38.05767       10.44356
O         61.45357       37.34421        9.47331
O         62.56262       37.68227       11.36599
H         63.03648       40.09562        8.41621
H         60.78860       39.73615        8.53211
H         59.81972       39.12141       10.66277
H         61.18446       39.80611       11.57037
N         60.45685       42.52264        8.44395
C         61.06486       42.27266        7.14874
C         62.30030       43.10082        6.94068
O         62.66351       43.90516        7.78778
H         60.02981       43.44770        8.58392
H         60.32235       42.47601        6.34723
H         61.36903       41.21755        7.03466
N         63.04651       42.88408        5.82592
C         64.32005       43.54817        5.58414
C         64.15056       45.00443        5.17198
O         65.16155       45.67727        5.03437
C         65.08669       42.82614        4.45193
C         65.40219       41.35371        4.78014
C         66.11247       40.64570        3.65018
N         66.44318       39.34073        3.77896
O         66.38475       41.23553        2.61386
H         62.71984       42.16036        5.16672
H         64.93385       43.48951        6.51161
H         66.05107       43.34955        4.26741
H         64.47483       42.87282        3.52315
H         64.46585       40.79413        4.98124
H         66.03814       41.31013        5.69049
H         66.21719       38.82418        4.64155
H         66.92128       38.84399        3.01266
N         62.92686       45.53285        4.86792
C         62.76481       46.86055        4.27477
C         62.30832       46.75880        2.82772
O         62.30008       47.78872        2.16338
C         61.80179       47.75488        5.09906
C         62.39703       48.07142        6.47004
C         60.40453       47.13423        5.25954
H         62.08817       44.94851        4.96939
H         63.74821       47.37698        4.22505
H         61.68351       48.72485        4.56595
H         62.55498       47.13982        7.04773
H         63.37259       48.58905        6.35481
H         61.71410       48.74542        7.02880
H         59.95116       46.92016        4.26867
H         60.44666       46.19412        5.84636
H         59.73755       47.83943        5.79928
N         61.92095       45.57876        2.25932
C         61.55055       45.45722        0.86002
C         60.06861       45.17609        0.74355
O         59.36794       45.97040        0.13365
C         62.37653       44.33418        0.19011
C         63.86247       44.57942        0.27244
N         64.42373       45.65407       -0.32716
O         64.57013       43.78816        0.87807
H         61.87535       44.71806        2.82268
H         61.74931       46.40692        0.31515
H         62.08799       44.23759       -0.87867
H         62.15674       43.36416        0.68820
H         63.84791       46.32497       -0.85495
H         65.44133       45.80933       -0.27158
N         59.53062       44.03726        1.26467
C         58.14071       43.64652        1.05624
C         57.44179       43.24742        2.34768
O         58.06911       43.16634        3.39308
C         58.09597       42.54053       -0.02711
C         59.19327       41.49720        0.09891
C         60.15701       41.38896       -0.92307
C         59.29379       40.65026        1.21491
C         61.19201       40.45671       -0.83212
C         60.33071       39.71419        1.30296
C         61.28337       39.61522        0.27834
O         62.28965       38.72078        0.35020
H         60.15240       43.36942        1.74309
H         57.54804       44.50324        0.66555
H         58.24529       43.06283       -0.99800
H         57.09409       42.06557       -0.08136
H         60.11560       42.03245       -1.79340
H         58.58404       40.71473        2.02198
H         61.92522       40.39159       -1.62662
H         60.39544       39.06930        2.16997
H         62.39134       38.11829        1.10042
N         56.09120       43.02095        2.31761
C         55.23977       42.62760        3.44153
C         55.09699       43.67205        4.54314
O         54.32235       43.40756        5.45273
C         55.68421       41.27427        4.04874
C         55.70782       40.12223        3.03320
C         54.35140       39.84141        2.45333
O         53.33141       39.48483        3.25705
O         54.17050       39.92542        1.24907
H         55.61253       43.11896        1.40943
H         54.20943       42.49469        3.04099
H         54.99144       40.99038        4.87231
H         56.69508       41.37923        4.49565
H         56.06686       39.20411        3.54567
H         56.41391       40.36047        2.21547
N         55.76762       44.86271        4.55332
C         55.66276       45.81645        5.65700
C         55.10996       47.16144        5.20698
O         54.97008       48.03637        6.05199
C         57.05468       46.02037        6.28966
C         57.76077       44.72776        6.73235
C         57.06610       43.98033        7.83313
O         57.69565       43.79075        9.00315
O         55.97321       43.47174        7.65479
H         56.40108       45.10555        3.78079
H         54.97407       45.44253        6.44349
H         56.98094       46.70740        7.16194
H         57.70216       46.50108        5.52741
H         58.77352       45.00303        7.08934
H         57.89616       44.04635        5.86816
N         54.77048       47.41695        3.91086
C         54.26321       48.70737        3.49758
H         53.32221       48.93814        4.04054
H         55.01697       49.49578        3.70975
H         54.05429       48.70112        2.40687
H         54.87078       46.69334        3.18588
Ca        56.90885       42.24895       10.42672
O         58.46234       40.75456       12.98793
H         59.01044       40.03598       13.39189
H         58.78514       41.58522       13.41900
O         57.38757       39.39165        9.65836
H         56.73049       39.82619        9.05873
H         56.83889       38.97008       10.36661
O         53.92502       41.84666       10.26911
H         54.38951       41.94822        9.40050
H         53.95527       42.75014       10.67350

Ca 1.0



