%chk=apoCaM-CA-Ng.loop1.water2.frame1123.chk
%nprocshared=20
%mem=10GB
%nosave
#b3lyp/svp scf=(tight,noincore,xqc) Test 
#IOP(5/87=12) Density=Current Pop=(MK,readradii) iop(6/33=2) iop(6/42=6)

apoCaM-CA-Ng.loop1.water2.frame1123 

   0  1 
C         90.31269       55.41320       58.31666
C         89.95577       55.58714       56.87201
O         89.68662       56.70969       56.47476
H         91.19987       56.03798       58.55172
H         89.46114       55.74019       58.95014
H         90.54806       54.35511       58.55273
N         89.91753       54.51696       56.02679
C         89.56937       54.62391       54.61392
C         88.24011       53.94917       54.36193
O         88.11870       53.08469       53.50499
C         90.73115       54.12211       53.73002
C         91.20237       52.73044       54.06726
O         90.45751       51.77052       53.95675
O         92.46663       52.54082       54.49088
H         90.11969       53.57963       56.40636
H         89.39612       55.68105       54.33190
H         91.58621       54.81704       53.87567
H         90.43710       54.17145       52.65880
N         87.16628       54.36216       55.08339
C         85.81944       53.86149       54.88269
C         85.13950       54.57874       53.72026
O         84.67244       53.86715       52.84107
C         85.04798       53.76958       56.21890
C         85.78082       52.76249       57.13993
C         85.01275       52.38581       58.41031
C         85.78021       51.28344       59.16746
N         85.03784       50.81378       60.33528
H         87.31807       55.07774       55.80855
H         85.87842       52.79671       54.55610
H         84.03152       53.37225       56.00503
H         84.94282       54.76024       56.71105
H         86.78334       53.15884       57.41438
H         85.92525       51.81804       56.56911
H         84.01461       51.99065       58.12172
H         84.87587       53.27695       59.05997
H         86.77403       51.66900       59.48787
H         85.95028       50.41698       58.48812
H         85.59005       50.06092       60.80757
H         84.88541       51.59890       61.00776
H         84.11852       50.41413       60.03627
N         85.10605       55.93243       53.51863
C         85.62915       56.98414       54.38901
C         86.95654       57.53426       53.85408
O         87.39072       57.15657       52.77457
C         84.53644       58.06467       54.61947
C         83.80825       58.47089       53.35602
O         84.43009       59.11154       52.34954
O         82.63190       58.17098       53.22610
H         84.71911       56.23657       52.61145
H         85.86952       56.57578       55.38436
H         84.94454       58.95385       55.14699
H         83.77449       57.60717       55.28811
N         87.70550       58.36091       54.64452
C         89.06831       58.80306       54.35175
C         89.19900       59.79809       53.19209
O         88.35263       60.87156       53.42706
H         87.32701       58.61721       55.56892
H         89.71915       57.92769       54.15463
H         89.46049       59.31254       55.26023
N         90.58241       60.29535       53.15319
C         90.83910       61.44087       52.24690
C         92.00797       62.25598       52.79425
O         92.71946       61.75826       53.65612
C         91.15496       60.94462       50.81049
C         89.95355       60.46961       50.03881
O         88.70648       60.59237       50.53029
O         90.10758       60.02259       48.91415
H         91.26876       59.51781       53.00854
H         89.97320       62.12929       52.25053
H         91.91454       60.13527       50.87073
H         91.60692       61.74056       50.19579
N         92.28901       63.53070       52.37898
C         91.48642       64.31369       51.44913
C         90.13969       64.69760       52.01831
O         89.99109       64.77312       53.22988
H         93.12524       63.99303       52.76967
H         91.37781       63.80782       50.47536
H         92.00996       65.26807       51.22560
N         89.11903       65.01368       51.17424
C         87.81295       65.47844       51.63011
C         87.10376       64.42620       52.46401
O         86.97174       63.29289       52.02608
C         86.88933       65.86959       50.44915
C         87.46439       67.00174       49.59493
O         85.65431       66.31111       50.96084
H         89.29551       64.94039       50.16147
H         87.95475       66.40263       52.23470
H         86.74631       64.98479       49.78592
H         84.97103       65.63202       50.72406
H         88.41613       66.70730       49.11070
H         86.74020       67.25959       48.79284
H         87.63842       67.90524       50.21752
N         86.54219       64.79598       53.64953
C         85.69730       63.97917       54.51356
C         84.44660       63.49903       53.76818
O         84.55896       62.70319       52.84695
C         86.43432       62.77025       55.16925
C         87.88920       63.05626       55.61995
C         85.60290       62.19348       56.33411
C         88.05840       64.18085       56.63737
H         86.67116       65.77349       53.95339
H         85.39253       64.64503       55.35218
H         86.51405       61.97759       54.41558
H         88.49447       63.30686       54.72612
H         88.32197       62.12325       56.04693
H         86.10107       61.29718       56.76252
H         85.47487       62.94489       57.14186
H         84.59354       61.88679       55.98852
H         87.69569       65.14172       56.22051
H         87.52286       63.95334       57.58023
H         89.13953       64.29026       56.87050
N         83.20865       63.87665       54.18455
C         81.99523       63.20388       53.71350
C         81.47962       63.61546       52.33352
O         80.57185       62.94016       51.86088
C         80.86680       63.34632       54.77122
C         80.37793       64.79406       54.93620
O         81.31797       62.88098       56.01786
H         83.15904       64.49750       55.00363
H         82.22823       62.11562       53.65992
H         79.98437       62.74204       54.45793
H         81.43528       61.89839       55.93528
H         79.97112       65.18500       53.98041
H         79.57016       64.82778       55.69700
H         81.18927       65.46976       55.27604
N         81.90544       64.72393       51.65912
C         81.23124       65.16646       50.42720
C         81.55310       64.26583       49.23202
O         82.40386       63.39913       49.35756
C         81.50920       66.66180       50.12581
C         81.00951       67.55780       51.27169
O         82.87834       66.86936       49.90713
H         82.62630       65.32095       52.09233
H         80.13258       65.09663       50.59936
H         80.94125       66.94770       49.21118
H         82.96984       67.77040       49.49887
H         81.16904       68.62656       51.01763
H         79.92121       67.39999       51.43381
H         81.54322       67.34350       52.22038
N         80.87052       64.42788       48.04957
C         80.97185       63.62982       46.81464
C         81.84867       62.38675       46.92650
O         82.88635       62.31534       46.27921
C         81.43271       64.49425       45.61281
C         80.57623       65.73830       45.33716
C         80.99066       66.37174       43.99936
C         80.23219       67.67513       43.72417
N         80.59206       68.21761       42.41327
H         80.17007       65.18261       48.02006
H         79.95141       63.26226       46.56462
H         81.38423       63.83987       44.71181
H         82.48721       64.81858       45.75420
H         80.71850       66.46930       46.16186
H         79.50168       65.45823       45.27882
H         80.77901       65.64626       43.18204
H         82.08117       66.58961       44.00549
H         80.48575       68.41728       44.51370
H         79.13587       67.48940       43.75239
H         80.09207       69.12393       42.26651
H         81.62295       68.38650       42.35898
H         80.30621       67.54987       41.66017
N         81.46671       61.34817       47.72334
C         82.28392       60.15448       47.91138
C         82.71599       60.06618       49.37157
O         83.89856       60.26923       49.60450
C         81.59475       58.89268       47.35474
C         81.37962       58.98890       45.83619
C         80.78003       57.72059       45.29925
O         81.44586       56.55552       45.41851
O         79.69481       57.74031       44.74095
H         80.57050       61.42637       48.22111
H         83.22828       60.25072       47.32801
H         80.60513       58.73450       47.81741
H         82.24661       58.01677       47.56862
H         82.35066       59.15942       45.32365
H         80.70640       59.84536       45.61065
N         81.89326       59.82619       50.43615
C         80.49634       59.46070       50.38784
H         79.88734       60.22924       49.88245
H         80.38058       58.46674       49.91437
H         80.11097       59.35147       51.42399
H         82.30663       59.88395       51.37526
Ca        86.33707       60.18014       52.71555
O         85.71920       62.56308       49.22212
H         85.03655       62.98091       49.80502
H         85.71317       63.11293       48.39884
O         86.61468       59.47996       48.75059
H         87.51703       59.11069       48.58101
H         86.30773       59.79977       47.86543

Ca 1.0



