%chk=apoCaM-CA-Ng.loop1.water1.frame853.chk
%nprocshared=20
%mem=10GB
%nosave
#b3lyp/svp scf=(tight,noincore,xqc) Test 
#IOP(5/87=12) Density=Current Pop=(MK,readradii) iop(6/33=2) iop(6/42=6)

apoCaM-CA-Ng.loop1.water1.frame853 

   0  1 
C         47.06716       45.17978      112.68591
C         46.01754       45.69689      111.73971
O         45.73044       45.07887      110.72551
H         47.91023       45.90576      112.73369
H         46.62416       45.10694      113.70300
H         47.45631       44.18804      112.38449
N         45.41883       46.87340      112.05040
C         44.38442       47.57256      111.28547
C         44.75035       47.70120      109.81300
O         45.77231       48.27404      109.48739
C         44.06760       48.93711      111.96123
C         45.25214       49.70784      112.56866
O         45.78647       50.83465      112.06655
O         45.59528       49.42569      113.70359
H         45.74111       47.28193      112.93112
H         43.45645       46.95668      111.31248
H         43.44314       48.67646      112.84945
H         43.41029       49.55975      111.32057
N         43.96251       47.11121      108.86290
C         44.42106       46.83779      107.50133
C         44.94470       48.03653      106.71363
O         45.69813       47.81395      105.77492
C         43.34731       46.06384      106.68619
C         42.07190       46.89785      106.43458
C         41.10201       46.24376      105.42924
C         39.79806       47.07044      105.32711
N         39.09519       46.88012      104.05067
H         43.06255       46.70054      109.15589
H         45.29378       46.15851      107.62682
H         43.06215       45.13784      107.23539
H         43.79784       45.75685      105.71814
H         42.35866       47.87743      105.99334
H         41.56181       47.08756      107.40198
H         40.84669       45.19641      105.70659
H         41.62728       46.22063      104.45136
H         40.02081       48.15432      105.43824
H         39.13148       46.78309      106.17149
H         38.20930       47.43497      104.06444
H         39.64061       47.24349      103.24735
H         38.90509       45.87582      103.85300
N         44.54789       49.31383      106.97448
C         44.98599       50.45614      106.15849
C         46.44529       50.84085      106.40083
O         47.01721       50.34977      107.36318
C         44.05337       51.66518      106.38812
C         43.91623       52.05801      107.82954
O         42.83518       52.40808      108.26557
O         44.88116       51.73761      108.68876
H         43.83857       49.45051      107.70868
H         44.88998       50.14383      105.11044
H         43.04494       51.38674      106.02199
H         44.37808       52.54705      105.81499
N         47.16412       51.68548      105.58722
C         46.74999       52.29140      104.31832
C         46.27462       51.25296      103.33739
O         46.91552       50.21683      103.22070
H         48.13912       51.87696      105.86654
H         47.63506       52.79269      103.87397
H         45.98155       53.07568      104.46352
N         45.10314       51.43507      102.65733
C         44.42342       50.34818      101.97021
C         44.17975       50.60693      100.49799
O         43.80242       51.70814      100.12096
C         43.08984       50.14362      102.67301
C         42.55236       48.76814      102.52529
O         43.12683       47.88373      101.90757
O         41.44111       48.49547      103.19552
H         44.60616       52.33569      102.74144
H         45.01930       49.41668      102.08754
H         42.34413       50.89863      102.33901
H         43.21529       50.27242      103.76185
N         44.36563       49.59358       99.60712
C         44.30007       49.74940       98.16687
C         45.65860       50.11488       97.61319
O         45.85889       49.99060       96.41384
H         44.67479       48.67465       99.95756
H         43.53932       50.49386       97.84858
H         43.99425       48.76575       97.74596
N         46.64919       50.55592       98.44045
C         47.99105       50.89894       98.01763
C         48.36695       52.28791       98.51886
O         47.93640       52.68307       99.59478
C         48.97540       49.82264       98.54167
C         48.88414       49.57887      100.05682
O         48.70806       48.60155       97.89867
H         46.46960       50.64769       99.44653
H         48.07423       50.89918       96.90843
H         50.01644       50.15077       98.31211
H         49.27586       48.56406       97.08556
H         49.65530       48.84194      100.36259
H         49.03849       50.51238      100.63416
H         47.89511       49.14684      100.32527
N         49.28650       53.02541       97.83444
C         49.83794       54.28816       98.32200
C         49.80579       55.34283       97.23129
O         49.24680       56.40785       97.45690
C         51.28841       54.05198       98.84874
C         51.22842       53.04575      100.03551
C         51.97181       55.37318       99.25485
C         52.52707       52.85564      100.81722
H         49.68097       52.62063       96.97289
H         49.24683       54.67595       99.18365
H         51.90923       53.61486       98.03460
H         50.93097       52.05917       99.62512
H         50.45750       53.36158      100.77344
H         51.46080       55.84508      100.11796
H         53.03544       55.18345       99.51222
H         51.99163       56.08947       98.40610
H         53.38090       52.65374      100.14056
H         52.73834       53.75614      101.43445
H         52.40357       51.99787      101.51334
N         50.41591       55.12230       96.03236
C         50.55187       56.13517       94.99621
C         52.00735       56.21088       94.56134
O         52.61971       55.20069       94.24389
C         49.60381       55.87331       93.81530
C         48.14776       56.04714       94.27930
O         49.86721       56.81664       92.80692
H         50.82158       54.19451       95.84253
H         50.25474       57.13499       95.38800
H         49.77945       54.84674       93.42307
H         49.38633       56.51191       91.99391
H         47.89014       55.30792       95.06474
H         47.99656       57.07117       94.69288
H         47.45217       55.91910       93.42574
N         52.59371       57.42967       94.49253
C         53.98824       57.69498       94.15998
C         54.54953       58.68669       95.17614
O         55.65834       58.50199       95.65707
C         54.08767       58.28578       92.72472
C         55.56685       58.45491       92.28763
O         53.36953       59.49706       92.65930
H         51.96841       58.22729       94.64785
H         54.58923       56.75718       94.15726
H         53.62344       57.57082       92.00939
H         53.79391       60.10286       91.99976
H         55.63289       58.95749       91.29825
H         56.14902       59.05845       93.01456
H         56.05153       57.46023       92.18363
N         53.84740       59.82390       95.45843
C         54.35778       60.96149       96.18860
C         53.33310       61.42938       97.20122
O         52.14671       61.46784       96.89374
C         54.62805       62.02171       95.12587
C         55.30626       63.29013       95.65781
C         55.76347       64.20441       94.50277
C         54.60928       64.65584       93.58445
N         55.10158       65.33565       92.38695
H         52.93060       59.97879       95.02141
H         55.32288       60.73221       96.68796
H         53.66449       62.25571       94.62653
H         55.31172       61.55905       94.37790
H         56.21647       62.99176       96.22498
H         54.62243       63.82516       96.34980
H         56.51844       63.65185       93.90295
H         56.26258       65.10189       94.93300
H         53.93331       65.32235       94.16241
H         54.02032       63.79042       93.22606
H         54.28895       65.76982       91.89202
H         55.80084       66.07406       92.62393
H         55.53442       64.63195       91.74279
N         53.73750       61.82605       98.43595
C         52.80439       62.23713       99.46693
C         52.29774       61.01692      100.23579
O         51.10464       60.76430      100.14543
C         53.39873       63.36279      100.34722
C         52.36664       63.82752      101.38523
C         52.86588       64.92746      102.27392
O         53.79004       64.66799      103.21866
O         52.37502       66.04270      102.20059
H         54.74716       61.87085       98.62554
H         51.91975       62.71028       98.97465
H         53.65600       64.22027       99.68203
H         54.33520       63.04702      100.84309
H         52.06966       62.98059      102.03827
H         51.47347       64.18410      100.83073
N         53.06121       60.21317      101.03866
C         54.48254       60.32819      101.29303
H         55.00393       61.00932      100.60705
H         54.63581       60.66878      102.33887
H         54.95732       59.33087      101.18208
H         52.57937       59.45814      101.55076
Ca        46.51022       51.19181      110.02250
O         48.45032       48.71830      110.10453
H         47.82669       48.04634      110.47060
H         49.30830       48.23072      110.07887

Ca 1.0



