%chk=apoCaM-CA-Ng.loop4.water4.frame808.chk
%nprocshared=20
%mem=10GB
%nosave
#b3lyp/svp scf=(tight,noincore,xqc) Test 
#IOP(5/87=12) Density=Current Pop=(MK,readradii) iop(6/33=2) iop(6/42=6)

apoCaM-CA-Ng.loop4.water4.frame808 

   -3  1 
C         76.53624      100.83006       67.83974
C         75.17038      101.38061       68.12480
O         74.28989      100.63243       68.51874
H         77.28066      101.33962       68.48821
H         76.57534       99.73819       68.03755
H         76.80051      101.01388       66.77737
N         74.93091      102.70514       67.92902
C         73.66781      103.38940       68.19210
C         73.38987      103.45337       69.69105
O         72.30471      103.10899       70.13955
C         72.49162      102.78878       67.37934
C         72.76078      102.67399       65.89993
O         73.93959      103.05505       65.36985
O         71.90534      102.19687       65.17190
H         75.70325      103.28362       67.56141
H         73.79777      104.44525       67.86225
H         71.59113      103.42347       67.52840
H         72.25400      101.77247       67.75559
N         74.36444      103.91293       70.52535
C         74.19683      104.10120       71.96773
C         73.19312      105.22089       72.23540
O         73.36668      106.28382       71.65660
C         75.57177      104.40684       72.66626
C         76.30053      105.67550       72.12810
C         76.46886      103.15703       72.59818
C         77.57772      106.02444       72.89315
H         75.27415      104.12956       70.09765
H         73.82334      103.15281       72.39993
H         75.36529      104.58269       73.74090
H         75.64047      106.55656       72.23482
H         76.56709      105.56782       71.05785
H         76.73990      102.90641       71.55180
H         77.39502      103.28821       73.19135
H         75.93851      102.29487       73.04967
H         78.35114      105.23984       72.77468
H         77.99914      106.96821       72.48656
H         77.35355      106.17110       73.97077
N         72.10458      105.11829       73.05943
C         71.69524      103.96491       73.86564
C         70.29258      104.22208       74.42533
O         70.06864      104.13646       75.62514
C         72.72200      103.66073       74.99668
C         73.05278      104.86418       75.85473
O         72.10380      105.48776       76.57749
O         74.20122      105.27270       75.91268
H         71.50200      105.95656       73.10499
H         71.59494      103.07598       73.20538
H         73.66404      103.28451       74.56170
H         72.33868      102.83855       75.63892
N         69.28911      104.57823       73.57542
C         67.95853      104.95595       74.02138
C         67.10882      103.81760       74.54194
O         65.96746      104.09167       74.88549
H         69.49858      104.67159       72.56995
H         67.41052      105.38352       73.15421
H         68.04132      105.75332       74.79264
N         67.55529      102.52908       74.61534
C         66.70389      101.42180       75.03855
C         67.12211      100.81952       76.37191
O         66.38111       99.97713       76.86004
C         66.59640      100.37691       73.90051
C         67.92175       99.91830       73.33911
O         68.18567      100.12309       72.16482
O         68.81987       99.28053       74.10636
H         68.52174      102.30693       74.34177
H         65.66923      101.78261       75.22888
H         66.02953      100.84905       73.06814
H         66.01022       99.49739       74.24455
N         68.23776      101.21223       77.05910
C         68.55057      100.70077       78.39196
C         68.80831       99.20099       78.45126
O         68.98337       98.68309       79.54428
H         68.86359      101.92728       76.66262
H         67.70065      100.94643       79.06366
H         69.45374      101.21957       78.78332
N         68.88693       98.44991       77.31927
C         69.17660       97.02636       77.25417
C         70.51823       96.67881       77.87620
O         70.67999       95.58173       78.39180
C         68.00859       96.13310       77.72800
C         66.74809       96.33053       76.86103
C         65.68669       95.28088       77.10376
N         64.55687       95.28247       76.35871
O         65.84861       94.41026       77.94710
H         68.80120       98.91777       76.41586
H         69.31357       96.78641       76.17474
H         67.77721       96.30078       78.80226
H         68.33229       95.07735       77.59557
H         67.03492       96.24923       75.79022
H         66.32097       97.34015       77.03600
H         64.40578       95.99837       75.63287
H         63.83748       94.55658       76.49592
N         71.56573       97.53864       77.73815
C         72.95197       97.18354       78.02976
C         73.80007       97.27356       76.76432
O         74.97121       96.92166       76.82471
C         73.55361       98.08847       79.13795
C         73.57432       99.57760       78.74513
C         72.81179       97.90015       80.46525
H         71.37832       98.47305       77.34911
H         73.01105       96.12773       78.37539
H         74.60690       97.76764       79.30278
H         74.13913       99.72895       77.80077
H         72.54703       99.97662       78.61450
H         74.07805      100.17108       79.53655
H         72.84568       96.83290       80.77201
H         73.29995       98.50290       81.26056
H         71.75134       98.21654       80.37639
N         73.29320       97.76393       75.59495
C         74.06028       97.93803       74.37694
C         73.39303       97.17832       73.25427
O         72.23183       96.80372       73.38496
C         74.07366       99.44863       74.06378
C         74.77304       99.80255       72.78313
N         74.09283      100.39837       71.77748
O         75.96350       99.56061       72.65275
H         72.31371       98.07025       75.53630
H         75.09773       97.55829       74.50591
H         74.56501       99.99343       74.89823
H         73.01919       99.80343       74.01009
H         73.08669      100.60892       71.86145
H         74.57903      100.65480       70.91123
N         74.06892       96.90933       72.10448
C         73.40002       96.27670       70.97997
C         74.38516       95.64813       70.01361
O         75.55865       95.99883       70.01963
C         72.54644       97.35778       70.27491
C         71.54266       96.81094       69.30363
C         71.63092       97.09933       67.93347
C         70.47475       96.03584       69.78045
C         70.66260       96.61163       67.05096
C         69.50474       95.55604       68.89990
C         69.59335       95.84054       67.53363
O         68.64441       95.37379       66.69826
H         75.06842       97.15602       72.04817
H         72.78729       95.44290       71.39080
H         73.23999       98.07669       69.78175
H         71.96505       97.94200       71.02073
H         72.44381       97.70181       67.55033
H         70.38555       95.81947       70.83824
H         70.74004       96.83985       65.99561
H         68.67997       94.96906       69.28335
H         68.66281       95.55317       65.74778
N         73.96458       94.66817       69.16737
C         74.83498       94.01585       68.20400
C         74.24364       94.24962       66.82764
O         73.25244       93.60586       66.50973
C         74.93614       92.51282       68.54800
C         75.85619       91.73184       67.59825
C         75.87689       90.27298       67.96118
O         74.84849       89.61515       67.92303
O         77.03160       89.67967       68.31840
H         72.97852       94.36489       69.20988
H         75.85516       94.43578       68.26429
H         73.91691       92.06639       68.52566
H         75.32960       92.40953       69.58427
H         76.88566       92.14701       67.65972
H         75.49903       91.82346       66.55085
N         74.69109       95.21313       65.97221
C         75.76829       96.16092       66.24971
C         77.12575       95.49141       66.20811
O         77.45120       94.86078       65.21147
C         75.76048       97.30896       65.21908
C         74.49781       98.17677       65.34204
C         74.53850       99.31364       64.36572
O         73.66014       99.43729       63.52739
O         75.54202      100.20994       64.41756
H         74.16613       95.32325       65.09024
H         75.60350       96.63801       67.24174
H         75.84998       96.89897       64.18813
H         76.64036       97.96271       65.41475
H         74.43889       98.60065       66.36771
H         73.58771       97.56527       65.16228
N         77.99527       95.64911       67.24645
C         79.33899       95.10839       67.25715
H         80.06629       95.94547       67.32810
H         79.46487       94.44902       68.14017
H         79.56981       94.52535       66.34130
H         77.70923       96.21039       68.06282
Ca        74.38458      102.69565       63.18714
O         75.71123      100.75360       61.23743
H         75.56399      100.10729       60.50232
H         76.67426      100.97761       61.18534
O         72.11902      104.57302       62.96360
H         71.25234      104.09957       62.89451
H         72.19769      105.07646       62.11497
O         71.86178      101.46195       61.34719
H         71.58981      101.62580       60.40922
H         71.02632      101.19094       61.80438
O         74.25872      103.46546       60.32803
H         73.66133      104.20045       60.04049
H         75.17343      103.80667       60.16317

Ca 1.0



