%chk=apoCaM-CA-Ng.loop1.water3.frame15.chk
%nprocshared=20
%mem=10GB
%nosave
#b3lyp/svp scf=(tight,noincore,xqc) Test 
#IOP(5/87=12) Density=Current Pop=(MK,readradii) iop(6/33=2) iop(6/42=6)

apoCaM-CA-Ng.loop1.water3.frame15 

   0  1 
C         43.70852       46.70915       66.35763
C         42.69551       47.48975       65.57369
O         42.97307       48.61279       65.17878
H         44.63585       47.30039       66.50877
H         43.28664       46.44644       67.35155
H         43.95894       45.77438       65.81368
N         41.47108       46.94716       65.34018
C         40.39972       47.62922       64.61900
C         39.25749       48.02625       65.55000
O         38.27305       48.56017       65.05728
C         39.90814       46.75972       63.43341
C         39.29700       45.43341       63.80832
O         39.21952       45.03580       65.08975
O         38.86394       44.70274       62.93189
H         41.28742       46.01361       65.73480
H         40.77426       48.57798       64.17639
H         40.76379       46.56482       62.75146
H         39.14566       47.33501       62.86370
N         39.33217       47.84421       66.90420
C         38.26871       48.21188       67.83244
C         38.77362       49.27948       68.80455
O         39.84395       49.06310       69.35780
C         37.85632       46.99096       68.68628
C         37.49353       45.68810       67.95886
C         36.38514       45.81197       66.90352
C         35.78212       44.43837       66.52985
N         36.75518       43.48722       65.98829
H         40.18274       47.43562       67.31694
H         37.37768       48.55748       67.28111
H         36.98985       47.29169       69.31018
H         38.68522       46.72726       69.38010
H         37.15399       44.99079       68.75598
H         38.40359       45.25720       67.49526
H         36.77931       46.33388       66.00464
H         35.55190       46.41727       67.31982
H         34.97468       44.59374       65.78108
H         35.31940       43.99774       67.44019
H         37.53591       43.31691       66.66179
H         36.27538       42.57301       65.82316
H         37.11965       43.82815       65.07309
N         38.08755       50.40834       69.17198
C         36.77330       50.86090       68.71161
C         35.70826       49.78687       68.86616
O         35.10264       49.39918       67.87626
C         36.89003       51.48728       67.31773
C         37.72941       52.73567       67.36078
O         38.23065       53.14485       68.39704
O         37.93048       53.42755       66.24196
H         38.53034       50.99485       69.89801
H         36.42869       51.70194       69.35572
H         35.88455       51.80218       66.97641
H         37.31519       50.77043       66.58651
N         35.40488       49.23945       70.08090
C         36.01626       49.65756       71.33532
C         34.98804       50.05290       72.37130
O         33.80866       49.79851       72.17875
H         34.70825       48.47955       70.11363
H         36.68434       50.51149       71.18761
H         36.62802       48.82848       71.74697
N         35.35329       50.67388       73.53312
C         36.70876       51.15461       73.79960
C         37.05185       52.39639       72.96256
O         38.18532       52.84741       73.03685
C         36.88806       51.47329       75.29690
C         36.66027       50.25089       76.14464
O         35.68536       50.24450       77.07297
O         37.36021       49.26074       75.99850
H         34.62043       50.84425       74.24029
H         37.43395       50.34585       73.55501
H         36.18177       52.27770       75.59642
H         37.92472       51.82910       75.48529
N         36.14006       52.98907       72.12963
C         36.48508       54.12416       71.27950
C         35.35451       54.53101       70.34288
O         34.27352       53.96384       70.40004
H         35.18970       52.60774       72.07785
H         37.35221       53.83799       70.65213
H         36.77622       54.99254       71.90878
N         35.56471       55.51252       69.41684
C         34.55108       55.94373       68.45467
C         35.01566       55.62013       67.04915
O         36.08133       56.06127       66.64900
C         34.24324       57.45024       68.61559
C         33.16008       57.90754       67.62859
O         35.39595       58.22729       68.41395
H         36.49541       55.95516       69.37564
H         33.59356       55.40920       68.63697
H         33.83802       57.62174       69.64114
H         35.83204       58.33988       69.29839
H         33.50452       57.79049       66.57795
H         32.23296       57.31082       67.76620
H         32.92084       58.97823       67.79511
N         34.24313       54.84416       66.23939
C         34.64167       54.47120       64.88816
C         34.71217       55.70882       64.00254
O         33.67290       56.27663       63.69443
C         33.64065       53.42445       64.28782
C         33.62786       52.12376       65.13849
C         33.97896       53.09820       62.81693
C         32.50943       51.15149       64.76004
H         33.34697       54.49871       66.61141
H         35.64332       53.99015       64.93968
H         32.62394       53.87798       64.31428
H         33.46362       52.36288       66.20798
H         34.60853       51.60987       65.05186
H         33.23488       52.40734       62.37421
H         33.94667       54.01267       62.19209
H         34.98953       52.64465       62.73666
H         32.53852       50.27814       65.44549
H         31.52124       51.64833       64.86696
H         32.62218       50.77089       63.72656
N         35.91247       56.14302       63.51760
C         36.03937       57.16570       62.47527
C         36.72194       56.58078       61.22595
O         36.75164       57.24936       60.20361
C         36.79358       58.41188       63.03636
C         36.59669       59.65641       62.16587
O         38.17644       58.19647       63.18222
H         36.76470       55.69744       63.88728
H         35.01950       57.49109       62.17655
H         36.35895       58.66087       64.02956
H         38.33623       57.23272       63.32648
H         37.10533       60.52328       62.64091
H         37.02451       59.52439       61.15267
H         35.51572       59.89766       62.08115
N         37.29673       55.33493       61.24697
C         37.96644       54.65634       60.14319
C         39.20365       55.39134       59.65698
O         39.37107       56.57439       59.91754
C         36.98991       54.33417       58.98128
C         35.72979       53.61088       59.47398
O         37.61987       53.56047       57.99004
H         37.27736       54.77665       62.10679
H         38.32701       53.68588       60.55808
H         36.66346       55.28400       58.50769
H         37.85412       52.68340       58.39522
H         35.99700       52.65997       59.98305
H         35.16987       54.25449       60.18163
H         35.06503       53.38578       58.61422
N         40.14283       54.70104       58.95224
C         41.34155       55.29818       58.37999
C         42.14147       56.01245       59.45420
O         42.33656       57.21397       59.33397
C         42.15454       54.19101       57.66719
C         43.32869       54.70079       56.81842
C         44.13189       53.54756       56.17675
C         43.30492       52.65109       55.23207
N         44.13421       51.59659       54.64822
H         39.99088       53.69042       58.81393
H         41.02140       56.03874       57.61240
H         41.45129       53.67126       56.98456
H         42.52200       53.45591       58.41595
H         44.02337       55.28182       57.46221
H         42.94297       55.37456       56.02218
H         44.56734       52.91870       56.98344
H         44.96916       53.99355       55.59681
H         42.86740       53.26954       54.41750
H         42.47682       52.16306       55.78754
H         43.54198       51.00109       54.02455
H         44.90822       52.01422       54.08311
H         44.53283       50.99377       55.40476
N         42.61501       55.34121       60.54233
C         43.36381       55.98834       61.61192
C         44.78657       55.49323       61.60593
O         45.01609       54.30363       61.78016
C         42.74808       55.69559       62.98522
C         41.44015       56.44929       63.24492
C         40.93331       56.15101       64.62475
O         39.85640       56.78574       65.10480
O         41.45498       55.28380       65.31204
H         42.45594       54.32383       60.60836
H         43.38492       57.09178       61.47960
H         43.46114       56.04238       63.76788
H         42.60619       54.59653       63.10665
H         40.65978       56.16385       62.50560
H         41.62950       57.54004       63.17004
N         45.80175       56.38410       61.43260
C         47.20031       56.02267       61.46138
H         47.70443       56.60344       62.26229
H         47.35305       54.94217       61.66151
H         47.66058       56.27722       60.48509
H         45.57991       57.37992       61.28088
Ca        38.91152       55.40019       66.52281
O         41.14128       54.56486       68.71006
H         41.35990       55.01267       69.56572
H         41.33842       53.60820       68.87227
O         38.14219       58.70142       66.68524
H         37.95071       59.67156       66.65346
H         37.27926       58.27555       66.45939
O         40.75241       57.72984       68.09905
H         40.62878       58.70832       68.18700
H         41.66292       57.62719       67.72378

Ca 1.0



