%chk=apoCaM-CA-Ng.loop3.water5.frame397.chk
%nprocshared=20
%mem=10GB
%nosave
#b3lyp/svp scf=(tight,noincore,xqc) Test 
#IOP(5/87=12) Density=Current Pop=(MK,readradii) iop(6/33=2) iop(6/42=6)

apoCaM-CA-Ng.loop3.water5.frame397 

   0  1 
C         14.24709      106.30409       39.62228
C         15.25679      107.07231       38.81733
O         16.43128      106.73714       38.86541
H         13.22291      106.70827       39.47874
H         14.25457      105.23902       39.31209
H         14.48922      106.36730       40.70101
N         14.86228      108.13294       38.05687
C         15.75213      108.94804       37.23949
C         16.82188      109.59897       38.10066
O         18.00467      109.46911       37.81420
C         16.31280      108.12309       36.05609
C         17.09891      108.97151       35.09194
O         16.51092      110.01193       34.47058
O         18.27014      108.71572       34.86130
H         13.86545      108.39868       38.06418
H         15.13885      109.76919       36.80396
H         15.46382      107.67673       35.49531
H         16.95021      107.29468       36.43300
N         16.45415      110.32550       39.19257
C         17.39975      111.04525       40.03202
C         17.40398      110.40312       41.40711
O         17.06453      111.03641       42.39725
C         16.98812      112.53033       40.02262
C         18.06466      113.48025       40.56130
C         17.54777      114.92764       40.48982
C         18.59753      115.98353       40.86681
N         19.68645      116.05262       39.88869
H         15.45289      110.38279       39.43690
H         18.42845      110.96952       39.61455
H         16.02778      112.65417       40.57086
H         16.81562      112.82502       38.96294
H         18.96413      113.35745       39.92285
H         18.33503      113.23339       41.61009
H         16.68746      115.01793       41.18905
H         17.18126      115.15589       39.46458
H         19.00310      115.78224       41.88224
H         18.08683      116.97204       40.88959
H         20.31867      116.84635       40.13931
H         20.24953      115.17371       39.89023
H         19.30028      116.22578       38.93149
N         17.77999      109.09922       41.51630
C         17.74488      108.33974       42.75779
C         19.12664      108.36649       43.40194
O         20.11411      108.21323       42.69619
C         17.28610      106.90548       42.44201
C         16.99349      106.12529       43.68748
O         15.93064      105.54507       43.83832
O         17.92858      106.06604       44.63703
H         18.09131      108.60856       40.66228
H         16.98522      108.77094       43.44837
H         18.08425      106.39065       41.86113
H         16.37154      106.92333       41.81890
N         19.26896      108.58227       44.74237
C         20.55658      108.79735       45.38818
C         21.59742      107.69676       45.23704
O         22.76587      108.03369       45.36571
H         18.42289      108.67323       45.32515
H         20.41848      109.01779       46.46913
H         20.98682      109.71564       44.93242
N         21.29223      106.38479       44.99604
C         22.32316      105.36780       44.76031
C         22.19957      104.69396       43.39653
O         23.08596      103.90645       43.09229
C         22.45099      104.34707       45.92751
C         21.19310      103.60859       46.40307
N         21.51412      102.63022       47.43586
O         20.49719      102.98635       45.37630
H         20.30897      106.10009       44.96987
H         23.32268      105.85331       44.71951
H         22.82567      104.90357       46.81330
H         23.22995      103.59903       45.66027
H         21.93812      103.12387       48.25300
H         20.62174      102.19579       47.76408
N         21.19536      104.96068       42.50270
C         21.16256      104.36818       41.16634
C         19.99366      103.43089       40.94032
O         19.99183      102.76051       39.91839
H         20.44515      105.61920       42.75025
H         22.07803      103.76659       40.98714
H         21.15571      105.17179       40.39853
N         18.97066      103.31872       41.83298
C         17.89232      102.34348       41.71843
C         17.81711      101.58002       43.02496
O         17.72038      102.20041       44.07053
C         16.56370      103.04728       41.40553
C         15.41136      102.06968       41.45086
C         15.37832      100.94655       40.60448
C         14.37334      102.26056       42.37656
C         14.33185      100.02471       40.69745
C         13.32686      101.34087       42.46410
C         13.30522      100.21617       41.62772
O         12.30736       99.31417       41.71194
H         18.94585      103.94531       42.64898
H         18.08422      101.63179       40.88668
H         16.62233      103.52075       40.40109
H         16.40248      103.85073       42.14424
H         16.16739      100.77308       39.88396
H         14.37866      103.11645       43.03945
H         14.32339       99.15658       40.05042
H         12.53844      101.50089       43.18808
H         11.58402       99.40768       42.34814
N         17.85260      100.22219       43.04684
C         17.99439       99.47983       44.29471
C         19.41384       99.73254       44.78131
O         19.60912      100.19894       45.89394
C         17.69238       97.96855       44.07962
C         16.25984       97.72821       43.51371
C         17.89779       97.17225       45.38143
C         15.10579       98.23192       44.39179
H         17.86019       99.71081       42.15159
H         17.26639       99.84916       45.04911
H         18.40695       97.56268       43.33008
H         16.12043       96.63737       43.35177
H         16.16224       98.21572       42.52130
H         17.68517       96.09563       45.21023
H         18.94849       97.25502       45.72465
H         17.24013       97.54499       46.19403
H         15.14780       99.33240       44.52406
H         14.14015       97.99491       43.89705
H         15.10739       97.73803       45.38441
N         20.44688       99.53649       43.91653
C         21.83069       99.90804       44.18075
C         22.46460       99.03849       45.23946
O         23.08105       99.57251       46.15049
C         22.65353       99.80553       42.88360
O         22.09640      100.60776       41.87529
H         20.21702       99.18105       42.97528
H         21.87942      100.97497       44.49175
H         22.66844       98.75537       42.52278
H         23.70779      100.11487       43.06359
H         22.16592      101.54806       42.18383
N         22.35669       97.67982       45.17008
C         23.00443       96.74520       46.08389
C         22.78264       97.13179       47.53936
O         23.74175       97.23217       48.29380
C         24.49418       96.63781       45.72686
H         21.76663       97.27431       44.42728
H         22.55548       95.74152       45.91399
H         25.00466       97.61509       45.86371
H         24.99298       95.87516       46.36137
H         24.60333       96.33121       44.66409
N         21.53250       97.44347       47.97637
C         21.25653       97.94550       49.31495
C         20.08721       97.20719       49.91907
O         19.03114       97.17944       49.30155
C         20.92961       99.43670       49.22710
H         20.75575       97.41612       47.29876
H         22.14770       97.85639       49.97515
H         21.79832       99.98172       48.79918
H         20.04332       99.61522       48.58268
H         20.72952       99.84364       50.24160
N         20.19002       96.61437       51.14619
C         19.07282       95.96157       51.82665
C         18.59595       94.70716       51.10194
O         17.58370       94.15141       51.50774
C         17.91288       96.96283       52.07476
C         18.37947       98.18696       52.88048
C         17.24124       99.12865       53.14867
O         16.64632       99.65638       52.22225
O         16.88161       99.40825       54.41604
H         21.08874       96.66321       51.64966
H         19.41356       95.62477       52.83114
H         17.11197       96.45058       52.65242
H         17.46430       97.29925       51.11763
H         19.16656       98.73911       52.32345
H         18.80672       97.84584       53.84853
N         19.29347       94.16077       50.06378
C         18.85104       92.95929       49.39091
H         17.87156       93.14060       48.90071
H         19.59045       92.66648       48.61514
H         18.75560       92.12615       50.11978
H         20.17997       94.57776       49.74804
Ca        18.62438      104.20776       45.59552
O         19.70639      106.04875       47.95783
H         19.05436      106.09232       48.70130
H         20.53276      105.69692       48.37417
O         17.68825      101.71830       47.81784
H         17.27913      101.64672       48.71655
H         17.32250      100.94568       47.31900
O         16.70121      106.96904       47.11157
H         15.99739      107.42017       46.58148
H         17.26304      107.70565       47.46036
O         15.23046      103.08319       45.97266
H         15.19154      102.12152       46.20498
H         14.30894      103.30648       45.68759
O         16.57357      104.44605       48.65039
H         16.84162      104.58470       49.59330
H         15.58367      104.44256       48.67043

Ca 1.0



