%chk=apoCaM-CA-Ng.loop4.water6.frame589.chk
%nprocshared=20
%mem=10GB
%nosave
#b3lyp/svp scf=(tight,noincore,xqc) Test 
#IOP(5/87=12) Density=Current Pop=(MK,readradii) iop(6/33=2) iop(6/42=6)

apoCaM-CA-Ng.loop4.water6.frame589 

   -3  1 
C         40.28159       24.00101      -15.04618
C         39.39804       24.07529      -16.25465
O         39.61655       23.31000      -17.18009
H         41.33205       24.20511      -15.34215
H         39.97765       24.73739      -14.27399
H         40.22009       22.98153      -14.60931
N         38.36235       24.96551      -16.31542
C         37.45786       25.09450      -17.45898
C         36.61506       23.83838      -17.69151
O         35.89539       23.79942      -18.68074
C         38.22960       25.49565      -18.74236
C         39.00650       26.77238      -18.55922
O         38.73923       27.75536      -19.23157
O         40.01547       26.83341      -17.66943
H         38.20695       25.59827      -15.51614
H         36.74020       25.91950      -17.25063
H         37.49544       25.64291      -19.56539
H         38.92792       24.69720      -19.06554
N         36.62954       22.78153      -16.82364
C         35.88543       21.54530      -17.05965
C         34.38222       21.80061      -17.12156
O         33.92979       22.76172      -16.51432
C         36.19156       20.47022      -15.95815
C         35.71391       20.92093      -14.54613
C         37.68460       20.09181      -15.97650
C         35.87484       19.84896      -13.46814
H         37.20215       22.84507      -15.97612
H         36.23171       21.15252      -18.03622
H         35.63126       19.54793      -16.20968
H         34.62932       21.15425      -14.58777
H         36.24833       21.83549      -14.21589
H         37.97094       19.76389      -16.99573
H         38.33381       20.94079      -15.68049
H         37.89074       19.24361      -15.29372
H         35.32835       18.92638      -13.75755
H         36.94244       19.61109      -13.29065
H         35.45056       20.22510      -12.51285
N         33.51009       20.95908      -17.75246
C         33.89582       19.84700      -18.61840
C         34.52989       20.36901      -19.89687
O         35.59950       19.91080      -20.26965
C         32.69485       18.92391      -18.95750
C         31.60228       19.53576      -19.79883
O         30.87035       20.56768      -19.33913
O         31.35608       19.07362      -20.90192
H         32.50600       21.15215      -17.62700
H         34.60103       19.17735      -18.08715
H         32.24850       18.54316      -18.01368
H         33.09990       18.04473      -19.50833
N         33.91033       21.35596      -20.60364
C         34.34522       21.86016      -21.89159
C         33.94754       20.89199      -22.97724
O         32.94398       21.13662      -23.63304
H         33.06322       21.78749      -20.20582
H         35.42052       22.14074      -21.90664
H         33.76969       22.79438      -22.07877
N         34.67713       19.77028      -23.22722
C         34.27302       18.75924      -24.20040
C         34.13604       17.37044      -23.57368
O         33.68087       16.47316      -24.26855
C         35.21858       18.79612      -25.42144
C         36.68488       18.69948      -25.08561
O         37.43220       19.62402      -25.36331
O         37.19190       17.60361      -24.49924
H         35.56652       19.63948      -22.72467
H         33.25934       18.99229      -24.59540
H         35.05572       19.77246      -25.93073
H         34.94105       17.99771      -26.14298
N         34.46429       17.11292      -22.27109
C         34.27859       15.82267      -21.61814
C         35.14797       14.68845      -22.13730
O         35.07272       13.61711      -21.55440
H         34.81913       17.86824      -21.67328
H         33.20862       15.52869      -21.68083
H         34.53132       15.94561      -20.54167
N         35.99535       14.83127      -23.20048
C         36.85647       13.78579      -23.74948
C         38.01628       13.41508      -22.83600
O         38.81014       12.57769      -23.24342
C         36.04216       12.54261      -24.19163
C         34.94117       12.88368      -25.21133
C         35.51532       13.44091      -26.49101
N         35.19442       14.68610      -26.91267
O         36.28173       12.75789      -27.15397
H         36.03453       15.72720      -23.68612
H         37.34556       14.19853      -24.66021
H         35.57513       12.05205      -23.31400
H         36.72585       11.79377      -24.64856
H         34.22631       13.60161      -24.75485
H         34.37507       11.95947      -25.45585
H         34.55226       15.27999      -26.37103
H         35.59361       15.06164      -27.78547
N         38.22342       14.01826      -21.62708
C         39.37294       13.72784      -20.77873
C         40.21478       14.97988      -20.59563
O         41.40637       14.92393      -20.86920
C         38.95156       13.06817      -19.42741
C         38.07057       13.93514      -18.51238
C         38.24385       11.73049      -19.69277
H         37.56423       14.73047      -21.29214
H         40.03576       12.97493      -21.26305
H         39.88259       12.83740      -18.86188
H         38.61194       14.83923      -18.17383
H         37.12334       14.22120      -19.01525
H         37.81925       13.37220      -17.58817
H         37.29025       11.88736      -20.24022
H         38.89687       11.06090      -20.29223
H         38.02123       11.21647      -18.73310
N         39.67867       16.14052      -20.11524
C         40.50187       17.29457      -19.77568
C         41.15345       17.92783      -21.00477
O         40.79414       17.60733      -22.12952
C         39.65052       18.32705      -18.99590
C         40.47917       19.41488      -18.36249
N         40.31525       20.70952      -18.71483
O         41.31612       19.11938      -17.52169
H         38.67024       16.17935      -19.91009
H         41.29822       16.91902      -19.09391
H         39.11790       17.80980      -18.16798
H         38.88355       18.75389      -19.67925
H         39.61739       20.98461      -19.42076
H         40.90282       21.43823      -18.28521
N         42.16883       18.81903      -20.82972
C         42.89537       19.49752      -21.90707
C         44.17875       20.12410      -21.35414
O         44.33754       20.21120      -20.14301
C         41.94808       20.50415      -22.61954
C         42.57549       21.34998      -23.70513
C         43.31610       22.49591      -23.36698
C         42.39462       21.03210      -25.06201
C         43.87744       23.30029      -24.36210
C         42.96279       21.83480      -26.05815
C         43.70446       22.97016      -25.71317
O         44.23991       23.73638      -26.68523
H         42.46922       18.96661      -19.85941
H         43.23493       18.72083      -22.62774
H         41.47715       21.18860      -21.87986
H         41.11515       19.92119      -23.06573
H         43.45096       22.76818      -22.33011
H         41.82105       20.16028      -25.35045
H         44.44305       24.18011      -24.08179
H         42.82362       21.57585      -27.10037
H         44.75417       24.53272      -26.48886
N         45.19543       20.48623      -22.19017
C         46.49398       20.91989      -21.69160
C         46.80861       22.32818      -22.17923
O         47.32840       22.46174      -23.27851
C         47.55677       19.88803      -22.12136
C         48.93893       20.17322      -21.51757
C         49.92207       19.11231      -21.91993
O         50.19303       18.93771      -23.09751
O         50.51345       18.34954      -20.98070
H         45.07557       20.38340      -23.20955
H         46.50642       20.90088      -20.58937
H         47.62095       19.85370      -23.23176
H         47.22720       18.88549      -21.76642
H         48.85517       20.18813      -20.40885
H         49.31655       21.16074      -21.85677
N         46.48892       23.45281      -21.46843
C         45.77248       23.45337      -20.19190
C         46.62387       22.90048      -19.05936
O         47.80647       22.64649      -19.24871
C         45.28853       24.87828      -19.82720
C         44.32557       25.44575      -20.88330
C         43.78987       26.78451      -20.47602
O         43.99626       27.76618      -21.17103
O         43.03756       26.89893      -19.36511
H         46.72002       24.35914      -21.90361
H         44.86895       22.81737      -20.30236
H         46.16243       25.55739      -19.70989
H         44.74607       24.84057      -18.85783
H         43.46174       24.76097      -21.01151
H         44.84206       25.54518      -21.86055
N         46.06147       22.66559      -17.84137
C         46.81191       22.11020      -16.73692
H         47.65194       22.78469      -16.46884
H         46.15024       21.99379      -15.85191
H         47.20923       21.11042      -17.01436
H         45.06106       22.86746      -17.69434
Ca        42.05560       28.87033      -18.86989
O         42.45133       30.36070      -21.58781
H         43.37086       30.58257      -21.29468
H         42.10843       31.19889      -21.98724
O         43.17130       31.46180      -17.74459
H         43.66942       31.18973      -18.55614
H         42.71576       32.30163      -18.00387
O         40.64573       27.31272      -21.55979
H         40.77913       26.33153      -21.55086
H         41.17869       27.63002      -22.33138
O         40.00965       29.72112      -16.60646
H         39.02579       29.61250      -16.62990
H         40.25332       29.58676      -15.65651
O         39.77827       31.29854      -19.44434
H         40.05588       31.69302      -18.57972
H         39.97851       32.00181      -20.11184
O         42.68784       27.94981      -15.98550
H         42.45215       26.99008      -15.92413
H         43.66972       27.95795      -16.11275

Ca 1.0



