%chk=apoCaM-CA-Ng.loop1.water2.frame1040.chk
%nprocshared=20
%mem=10GB
%nosave
#b3lyp/svp scf=(tight,noincore,xqc) Test 
#IOP(5/87=12) Density=Current Pop=(MK,readradii) iop(6/33=2) iop(6/42=6)

apoCaM-CA-Ng.loop1.water2.frame1040 

   0  1 
C          3.81458       40.64898       48.89565
C          4.34727       39.68193       49.91331
O          4.90016       40.11591       50.91302
H          2.91342       41.12481       49.33608
H          4.55827       41.43092       48.63991
H          3.49926       40.13006       47.96477
N          4.12442       38.34783       49.75352
C          4.32139       37.35839       50.81126
C          5.69840       36.70421       50.79193
O          5.78873       35.48441       50.83431
C          3.14572       36.33385       50.86181
C          2.81865       35.63161       49.56034
O          3.02086       34.30784       49.43447
O          2.27329       36.23431       48.64837
H          3.57710       38.08945       48.92767
H          4.28605       37.87638       51.79010
H          2.22012       36.84559       51.19995
H          3.38631       35.56978       51.63362
N          6.82823       37.46593       50.82296
C          8.15398       36.90685       51.05685
C          8.31360       36.46134       52.50174
O          8.75015       35.32969       52.67058
C          9.27360       37.79740       50.47805
C          9.18080       37.70110       48.94019
C         10.23782       38.49938       48.18037
C         10.07381       38.32454       46.65468
N         10.37419       36.96040       46.20311
H          6.74644       38.48720       50.74073
H          8.24791       35.96005       50.47463
H         10.26767       37.39540       50.77712
H          9.19010       38.84340       50.84351
H          8.17538       38.03751       48.60694
H          9.30365       36.63033       48.67569
H         11.26145       38.18844       48.48342
H         10.10433       39.57309       48.43085
H         10.77086       39.02340       46.14523
H          9.03711       38.59888       46.35458
H         10.28723       36.92004       45.16219
H         11.35248       36.70246       46.46797
H          9.70479       36.26326       46.59719
N          7.89320       37.14512       53.61073
C          7.37465       38.51401       53.72120
C          5.88090       38.53244       54.04229
O          5.29435       37.48593       54.28129
C          8.14232       39.29571       54.82809
C          8.09348       38.60245       56.18415
O          7.51266       39.17132       57.26624
O          8.64433       37.52690       56.31654
H          7.91055       36.57890       54.46379
H          7.51056       39.04373       52.75825
H          7.71904       40.31955       54.91284
H          9.20683       39.40855       54.52834
N          5.19113       39.71427       53.99440
C          3.74164       39.80944       54.13668
C          3.24357       39.76438       55.55799
O          4.02597       39.91793       56.46622
H          5.69882       40.56881       53.71837
H          3.25346       39.03800       53.51066
H          3.40985       40.80381       53.76688
N          1.90954       39.65159       55.80763
C          1.28262       39.84939       57.12663
C         -0.01643       40.65739       56.92228
O         -0.52557       40.65802       55.80957
C          1.01487       38.49614       57.83556
C          2.27802       37.68216       58.02623
O          3.28943       38.10464       58.83591
O          2.37397       36.61970       57.43673
H          1.30869       39.54335       54.97816
H          1.97726       40.43587       57.75906
H          0.30008       37.91645       57.20920
H          0.54283       38.64155       58.82819
N         -0.64551       41.39439       57.88300
C         -0.28310       41.48696       59.27831
C          1.08136       42.06974       59.56978
O          1.63630       42.82687       58.78642
H         -1.49946       41.90366       57.60301
H         -0.36737       40.47898       59.72542
H         -1.02632       42.12234       59.80977
N          1.66805       41.69669       60.73788
C          2.95758       42.13597       61.26369
C          4.09361       41.94596       60.26363
O          4.20623       40.87813       59.68247
C          3.29838       41.32657       62.54426
C          2.27004       41.46381       63.67844
O          4.54508       41.75158       63.02770
H          1.13156       41.02512       61.30093
H          2.89659       43.21394       61.53661
H          3.33998       40.24609       62.25854
H          5.03994       40.93373       63.28754
H          1.29830       40.99092       63.43058
H          2.65112       40.93755       64.57933
H          2.09927       42.53042       63.93095
N          5.00457       42.95137       60.07200
C          6.14873       42.92069       59.15820
C          7.20062       41.87524       59.53121
O          6.89966       40.69792       59.63674
C          5.69578       42.83523       57.67533
C          4.75571       44.01239       57.29400
C          6.90757       42.78337       56.72249
C          5.37651       45.41366       57.38984
H          4.88052       43.82206       60.61032
H          6.66394       43.89735       59.25108
H          5.12163       41.90158       57.51819
H          3.85297       43.99148       57.93877
H          4.41765       43.85996       56.24692
H          7.45782       41.82933       56.85233
H          6.57819       42.83899       55.66349
H          7.61594       43.61426       56.92506
H          5.64081       45.67543       58.43469
H          6.27775       45.49943       56.74911
H          4.63723       46.16294       57.03801
N          8.50586       42.26438       59.64909
C          9.61569       41.34906       59.91541
C          9.63590       40.85564       61.35555
O         10.36826       39.92133       61.65339
C         10.97138       42.02770       59.55786
C         11.29831       43.24050       60.45072
O         10.95090       42.45981       58.22076
H          8.72232       43.25035       59.45405
H          9.49574       40.46990       59.24201
H         11.80206       41.29728       59.68883
H         10.82955       41.65419       57.65371
H         10.53915       44.04428       60.36169
H         11.36941       42.94430       61.51776
H         12.27401       43.67539       60.14803
N          8.91077       41.49283       62.31574
C          8.89951       41.11025       63.72035
C          8.24399       39.75709       63.88983
O          7.09189       39.59317       63.52485
C          8.17303       42.20814       64.53054
C          7.89734       41.82074       65.98242
O          8.97716       43.36348       64.51484
H          8.36671       42.32328       62.04439
H          9.94547       41.06386       64.10233
H          7.18051       42.40240       64.05641
H          8.42426       44.11943       64.19130
H          8.83929       41.56959       66.51122
H          7.39872       42.67007       66.49509
H          7.20668       40.95131       66.02388
N          8.94204       38.73716       64.45711
C          8.41869       37.40269       64.68995
C          7.94622       36.78139       63.38685
O          6.79871       36.35999       63.30345
C          7.31918       37.40492       65.78577
C          7.06747       35.98642       66.34653
C          5.80958       35.94526       67.22753
C          5.58973       34.58042       67.90657
N          6.59625       34.31133       68.93658
H          9.91921       38.90477       64.74084
H          9.26180       36.79039       65.08070
H          6.38789       37.85014       65.37382
H          7.64499       38.03237       66.64486
H          7.97172       35.69282       66.92084
H          6.92483       35.24433       65.53349
H          4.93632       36.14907       66.56855
H          5.84384       36.73381       68.00906
H          5.58550       33.76247       67.15132
H          4.58916       34.59657       68.39282
H          6.62181       35.09820       69.62581
H          6.34000       33.43436       69.44483
H          7.54105       34.18011       68.51251
N          8.80648       36.64732       62.33428
C          8.45182       35.87049       61.15499
C          8.59512       36.65158       59.85192
O          7.55339       36.97798       59.30340
C          9.19297       34.51953       61.19517
C          8.74756       33.69645       62.41498
C          9.46425       32.38345       62.46429
O         10.80287       32.34968       62.61024
O          8.83717       31.33991       62.38684
H          9.76595       37.01199       62.42156
H          7.37100       35.60064       61.19427
H         10.28447       34.65284       61.27517
H          8.97125       33.94806       60.27049
H          7.65052       33.52637       62.35197
H          8.96379       34.23881       63.36156
N          9.76080       36.95838       59.20881
C         11.11292       36.65318       59.59617
H         11.72996       37.56239       59.45088
H         11.21226       36.37330       60.64914
H         11.50837       35.86225       58.91835
H          9.69050       37.42456       58.30266
Ca         5.41024       38.65517       58.06558
O          5.43178       35.81433       57.80444
H          4.47428       35.65481       57.64044
H          5.58126       35.41898       58.69802
O          5.42452       38.45274       61.25481
H          4.92004       38.28362       62.08874
H          5.80517       39.35545       61.38412

Ca 1.0



