%chk=apoCaM-CA-Ng.loop2.water3.frame145.chk
%nprocshared=20
%mem=10GB
%nosave
#b3lyp/svp scf=(tight,noincore,xqc) Test 
#IOP(5/87=12) Density=Current Pop=(MK,readradii) iop(6/33=2) iop(6/42=6)

apoCaM-CA-Ng.loop2.water3.frame145 

   -2  1 
C         35.80352       55.97710      -16.34747
C         35.30978       56.71625      -17.55677
O         35.55177       56.26789      -18.66813
H         36.47277       56.62996      -15.74992
H         34.93675       55.67279      -15.72266
H         36.36217       55.06274      -16.64304
N         34.58630       57.86161      -17.40544
C         34.00732       58.60584      -18.51950
C         34.54796       60.03589      -18.61174
O         34.09657       60.75509      -19.48596
C         32.47279       58.57934      -18.35621
C         31.74530       59.18824      -19.52358
O         31.88324       58.72514      -20.64496
O         30.93411       60.24629      -19.33517
H         34.40164       58.20110      -16.44800
H         34.25211       58.10673      -19.48343
H         32.19193       59.10811      -17.41924
H         32.13915       57.52186      -18.27070
N         35.51401       60.51336      -17.77006
C         36.12426       61.84350      -17.83476
C         36.98701       62.02714      -19.08130
O         38.19784       61.93338      -18.95046
C         35.10584       62.97452      -17.63342
H         35.87020       59.89909      -17.02421
H         36.82425       61.90026      -16.96866
H         34.35083       63.00796      -18.44403
H         34.57118       62.83271      -16.67067
H         35.62822       63.95445      -17.60702
N         36.45925       62.32232      -20.30646
C         37.25998       62.47442      -21.52233
C         36.82722       61.48733      -22.60187
O         37.37417       61.54126      -23.69522
C         37.12991       63.91295      -22.05378
C         37.61144       64.92363      -21.05148
O         36.85207       65.78232      -20.63328
O         38.88737       64.89786      -20.62163
H         35.44655       62.47484      -20.39622
H         38.33703       62.28144      -21.32115
H         36.06870       64.11538      -22.31744
H         37.74615       64.02780      -22.97267
N         35.88128       60.53305      -22.36280
C         35.45081       59.54460      -23.33226
C         36.61546       58.74202      -23.83782
O         36.71583       58.53457      -25.03921
H         35.45845       60.45268      -21.43413
H         34.91650       60.02821      -24.17905
H         34.73983       58.85292      -22.82904
N         37.57939       58.31062      -22.97788
C         38.74198       57.56614      -23.44045
C         38.32965       56.17141      -23.84942
O         37.27765       55.70995      -23.42409
C         39.82547       57.53068      -22.34583
C         40.36297       58.92186      -22.09611
N         41.05846       59.57272      -23.05719
O         40.17171       59.46758      -21.02215
H         37.50546       58.56531      -21.97993
H         39.15992       58.08200      -24.33241
H         40.67636       56.88060      -22.64106
H         39.37856       57.11185      -21.41751
H         41.24410       59.12706      -23.96710
H         41.42498       60.52082      -22.88633
N         39.10340       55.45393      -24.71372
C         38.74314       54.11904      -25.16314
C         39.78779       53.11019      -24.77115
O         40.86796       53.47677      -24.32645
H         39.97075       55.87589      -25.07875
H         38.59053       54.10173      -26.26214
H         37.78840       53.79937      -24.69124
N         39.46793       51.78614      -24.81202
C         40.33455       50.72356      -24.29578
C         40.59545       50.84904      -22.77856
O         41.34124       50.04173      -22.24454
C         39.73879       49.32328      -24.63198
C         38.41159       49.00844      -23.91325
O         39.60433       49.16937      -26.02579
H         38.54417       51.54177      -25.19740
H         41.31161       50.79459      -24.82292
H         40.46224       48.54950      -24.29629
H         38.76797       49.61709      -26.31792
H         38.56346       49.00046      -22.81712
H         37.61779       49.74282      -24.16288
H         38.05527       47.99932      -24.20899
N         40.01530       51.83652      -22.03289
C         40.17952       52.05520      -20.59711
C         40.87519       53.39747      -20.37451
O         41.21162       54.04459      -21.35787
C         38.76653       51.99825      -19.91874
C         37.81220       53.13140      -20.42248
C         38.15624       50.60393      -20.14128
C         36.40017       53.08184      -19.84279
H         39.40247       52.50327      -22.49592
H         40.82606       51.26972      -20.14770
H         38.89749       52.12113      -18.82225
H         37.67178       53.10086      -21.51960
H         38.25737       54.11440      -20.16095
H         37.92949       50.44908      -21.21413
H         38.85889       49.81560      -19.79697
H         37.21873       50.47827      -19.56426
H         36.42349       53.11619      -18.73554
H         35.82192       53.95028      -20.22485
H         35.86943       52.16839      -20.18458
N         41.08824       53.90782      -19.11982
C         41.62379       55.25555      -18.92610
C         42.79245       55.30078      -17.92932
O         42.94871       56.29472      -17.23720
C         40.42922       56.18002      -18.57950
C         40.72833       57.65211      -18.63822
O         39.73632       58.55122      -18.49638
O         41.85995       58.05881      -18.85068
H         40.76036       53.38476      -18.29461
H         42.03218       55.63579      -19.88713
H         40.01270       55.91467      -17.58345
H         39.63730       56.00078      -19.33655
N         43.70290       54.28727      -17.85847
C         44.91330       54.32655      -17.02404
C         44.58796       54.54630      -15.54085
O         43.88557       53.71399      -14.99174
C         45.66894       52.98425      -17.17705
C         46.89637       52.88502      -16.30142
C         48.01357       53.70582      -16.52481
C         46.92567       51.95914      -15.24270
C         49.13883       53.60255      -15.69935
C         48.04869       51.86274      -14.41823
C         49.15529       52.68321      -14.64627
H         43.54244       53.45863      -18.45165
H         45.55402       55.14323      -17.40655
H         45.95821       52.82068      -18.23776
H         44.95929       52.17204      -16.90203
H         48.01452       54.42088      -17.33758
H         46.07528       51.31722      -15.04767
H         49.99892       54.23508      -15.87517
H         48.05905       51.15162      -13.60211
H         50.02494       52.60504      -14.00691
N         45.08944       55.59617      -14.79998
C         44.84102       55.77722      -13.36728
C         43.39924       56.05842      -12.96916
O         43.14919       56.19403      -11.77821
C         45.69493       56.99530      -12.99324
C         46.83748       56.88746      -13.97334
C         46.09244       56.53716      -15.25821
H         45.21605       54.86482      -12.85094
H         45.14734       57.93073      -13.25758
H         45.97888       57.04593      -11.91951
H         47.48103       57.78989      -14.04149
H         47.46544       56.01598      -13.67419
H         45.57988       57.43167      -15.67673
H         46.82875       56.12380      -15.97207
N         42.40434       56.17272      -13.89236
C         41.01282       56.44367      -13.56385
C         40.14475       55.21420      -13.81271
O         38.97075       55.25332      -13.47391
C         40.50519       57.61888      -14.42014
C         41.25215       58.94455      -14.17246
C         40.74106       59.97376      -15.13702
O         39.54313       60.20568      -15.19886
O         41.56564       60.57423      -16.01532
H         42.62551       56.05082      -14.88429
H         40.90704       56.69307      -12.48498
H         39.42365       57.78139      -14.21410
H         40.61063       57.33606      -15.49270
H         42.34424       58.81488      -14.33308
H         41.07477       59.28620      -13.13159
N         40.64632       54.08093      -14.38231
C         39.86511       52.88194      -14.57017
H         38.98267       53.09368      -15.20736
H         40.48930       52.10721      -15.06806
H         39.54269       52.48987      -13.58293
H         41.61485       54.04598      -14.70034
Ca        40.57081       60.57116      -18.00879
O         41.77292       63.35560      -17.36217
H         42.66103       62.99211      -17.11760
H         41.25496       63.33706      -16.51841
O         41.30559       62.68510      -20.53919
H         40.45934       62.79974      -20.04040
H         41.84997       63.47094      -20.28194
O         43.49809       60.79165      -19.64072
H         43.72085       60.25646      -20.44347
H         43.97068       61.65132      -19.77625

Ca 1.0



