%chk=apoCaM-CA-Ng.loop1.water3.frame1164.chk
%nprocshared=20
%mem=10GB
%nosave
#b3lyp/svp scf=(tight,noincore,xqc) Test 
#IOP(5/87=12) Density=Current Pop=(MK,readradii) iop(6/33=2) iop(6/42=6)

apoCaM-CA-Ng.loop1.water3.frame1164 

   0  1 
C         97.38603       47.51999      106.81407
C         98.16880       48.69575      107.31964
O         97.59914       49.51602      108.02277
H         96.54700       47.87682      106.17994
H         98.02046       46.83852      106.20967
H         96.97531       46.95210      107.67470
N         99.47912       48.85593      106.97800
C        100.29355       49.98665      107.41178
C        100.56668       50.88665      106.22386
O        101.70750       51.11108      105.84395
C        101.55557       49.51093      108.16957
C        102.53107       48.65556      107.39711
O        103.64157       48.21367      108.01651
O        102.34501       48.36183      106.22708
H         99.90367       48.16217      106.34634
H         99.73132       50.61742      108.13675
H        101.22369       48.93418      109.05960
H        102.10258       50.40874      108.53230
N         99.50186       51.48302      105.62529
C         99.59201       52.40491      104.50097
C         99.44616       53.84830      104.97455
O        100.36198       54.60887      104.69269
C         98.60506       52.03960      103.37309
C         98.79446       50.59093      102.89971
C         97.87185       50.27317      101.71813
C         98.00575       48.80445      101.29618
N         97.14024       48.50823      100.15532
H         98.58253       51.27423      106.02672
H        100.60561       52.32825      104.04366
H         98.78445       52.73094      102.51982
H         97.55278       52.16897      103.69125
H         98.56126       49.90187      103.74123
H         99.85049       50.43143      102.58904
H         98.13629       50.93216      100.86178
H         96.81605       50.46881      102.00734
H         97.72212       48.15025      102.15104
H         99.06168       48.58556      101.02170
H         97.42673       49.08364       99.33017
H         97.23123       47.49590       99.91027
H         96.14262       48.70965      100.39675
N         98.42359       54.34361      105.74051
C         97.27094       53.61271      106.26356
C         97.50006       53.26590      107.73099
O         98.53812       53.61167      108.27898
C         95.97508       54.40178      105.99970
C         95.98771       55.76948      106.60892
O         96.05459       55.93022      107.94274
O         95.94179       56.74572      105.88333
H         98.52673       55.32146      106.05596
H         97.12240       52.66531      105.73557
H         95.09180       53.84685      106.37774
H         95.85753       54.50378      104.89767
N         96.59764       52.50501      108.41074
C         96.81559       52.03910      109.77427
C         96.81130       53.14498      110.80368
O         96.61552       54.29279      110.45153
H         95.74969       52.18199      107.92225
H         97.77690       51.48455      109.82557
H         95.99517       51.33987      110.04436
N         96.96428       52.83156      112.12386
C         96.86500       53.79893      113.23340
C         96.65240       53.04963      114.57766
O         96.80321       51.83513      114.58250
C         98.15042       54.66916      113.34639
C         98.74726       55.33150      112.11281
O         99.90832       55.06170      111.84707
O         98.11946       56.22530      111.30004
H         97.06151       51.82586      112.32505
H         95.97356       54.41534      113.05683
H         98.94488       53.99411      113.74717
H         98.00388       55.45927      114.09682
N         96.32937       53.62358      115.78305
C         95.98227       55.00472      116.08794
C         94.61718       55.34963      115.56334
O         93.68125       54.61657      115.85245
H         96.29252       52.98557      116.59514
H         96.76837       55.71452      115.78295
H         95.89583       55.09563      117.19280
N         94.42299       56.44469      114.77851
C         93.13766       56.73489      114.14292
C         93.27112       56.30379      112.69591
O         94.36752       55.94747      112.32614
C         92.76797       58.22770      114.37073
C         91.32475       58.57573      113.99010
O         93.66063       59.05616      113.67132
H         95.24023       57.02447      114.52693
H         92.34548       56.10202      114.59556
H         92.86580       58.41611      115.46544
H         93.54356       59.97845      114.02172
H         91.14891       58.46981      112.90394
H         90.61733       57.93252      114.55511
H         91.11441       59.63330      114.26112
N         92.22644       56.19805      111.83590
C         92.37234       55.72834      110.45343
C         93.12597       56.74844      109.54376
O         93.85106       57.73360      110.24940
C         93.03534       54.31898      110.31672
C         92.42489       53.25032      111.25553
C         93.01047       53.83995      108.84977
C         90.94579       52.94600      111.01429
H         91.27736       56.40238      112.17665
H         91.33847       55.61378      110.05893
H         94.10303       54.39194      110.59190
H         92.55139       53.57404      112.31034
H         92.99955       52.30548      111.13314
H         93.56335       54.54383      108.19450
H         93.49879       52.84781      108.75726
H         91.97218       53.76894      108.46544
H         90.61686       52.16317      111.72912
H         90.32345       53.84871      111.17802
H         90.77932       52.55907      109.98851
N         92.17872       57.32815      108.57824
C         92.79029       58.28768      107.63991
C         92.60977       59.71983      108.14069
O         93.08320       60.63322      107.47904
C         92.19881       58.11355      106.20778
C         90.68436       58.38043      106.14940
O         92.46642       56.80622      105.76154
H         91.77792       56.51577      108.05565
H         93.87824       58.07999      107.55557
H         92.71673       58.83184      105.53154
H         92.27527       56.77985      104.78794
H         90.12624       57.68514      106.81106
H         90.45832       59.42405      106.45062
H         90.31743       58.23628      105.11052
N         91.92433       59.99421      109.29294
C         91.70105       61.34528      109.79731
C         93.02594       62.00512      110.12346
O         93.70678       61.53587      111.02436
C         90.80781       61.28617      111.06884
C         90.54818       62.65615      111.69843
O         89.56795       60.70467      110.74781
H         91.52288       59.21506      109.83204
H         91.16465       61.92868      109.01571
H         91.33314       60.67868      111.84515
H         89.57898       59.76892      111.08069
H         89.91794       62.53058      112.60505
H         91.49913       63.13060      112.01721
H         90.02342       63.32225      110.98273
N         93.45393       63.10227      109.42818
C         94.69054       63.81760      109.73321
C         95.86217       62.85644      109.66787
O         96.50339       62.59910      110.67780
C         94.56890       64.55606      111.08732
C         93.41085       65.56891      111.04980
C         93.32201       66.39174      112.33858
C         92.13969       67.37020      112.26838
N         92.07200       68.20495      113.46664
H         92.88190       63.45074      108.64394
H         94.85911       64.60579      108.96509
H         95.51807       65.10500      111.27457
H         94.40997       63.83904      111.92130
H         92.45231       65.02939      110.89497
H         93.56287       66.26594      110.19623
H         94.26734       66.96263      112.46972
H         93.18694       65.71458      113.21018
H         91.19165       66.79570      112.16528
H         92.24896       68.02674      111.37627
H         91.24665       68.84280      113.39132
H         91.96362       67.60820      114.31841
H         92.93899       68.78456      113.54714
N         96.16946       62.26642      108.47964
C         97.15895       61.20701      108.33210
C         96.48245       59.97608      107.73565
O         96.35135       59.00954      108.47264
C         98.39985       61.68107      107.55569
C         99.20870       62.70623      108.36129
C        100.42940       63.13610      107.60015
O        101.35937       62.22881      107.24365
O        100.58910       64.31014      107.30768
H         95.64029       62.56725      107.65225
H         97.52922       60.89887      109.33558
H         98.11319       62.14939      106.59715
H         99.05230       60.80080      107.36072
H         99.53550       62.25313      109.32274
H         98.57536       63.59208      108.58496
N         95.98609       59.87881      106.46387
C         96.11886       60.84460      105.39648
H         97.18179       60.94602      105.10579
H         95.58998       60.46780      104.49486
H         95.67021       61.81733      105.65764
H         95.48416       59.02007      106.21374
Ca        96.00647       56.95581      110.76216
O         98.90885       59.12094      110.86115
H         99.76191       58.70753      110.57727
H         99.17365       59.99202      111.24969
O         96.13566       59.89531      111.82860
H         95.70064       59.81299      110.94353
H         95.82033       59.10527      112.33262
O         99.35827       56.73549      108.79059
H         98.61637       56.10582      108.61636
H         99.98770       56.22407      109.35863

Ca 1.0



