%chk=apoCaM-CA-Ng.loop4.water3.frame957.chk
%nprocshared=20
%mem=10GB
%nosave
#b3lyp/svp scf=(tight,noincore,xqc) Test 
#IOP(5/87=12) Density=Current Pop=(MK,readradii) iop(6/33=2) iop(6/42=6)

apoCaM-CA-Ng.loop4.water3.frame957 

   -3  1 
C         73.02949      110.56225       43.74242
C         73.44597      111.87189       43.13486
O         73.48230      111.97463       41.91786
H         72.00000      110.30757       43.41583
H         73.72650      109.76182       43.41687
H         73.04464      110.60524       44.85276
N         73.78035      112.92222       43.93595
C         74.21947      114.23271       43.46541
C         73.12847      114.91253       42.64877
O         73.36259      115.28843       41.50670
C         75.53367      114.14342       42.66352
C         76.56749      113.25483       43.28058
O         76.97814      112.21542       42.53640
O         77.04008      113.47178       44.38442
H         73.73338      112.79140       44.95850
H         74.42097      114.85630       44.36517
H         75.94800      115.16227       42.50471
H         75.31405      113.71141       41.66468
N         71.89230      115.09439       43.18609
C         70.79300      115.73994       42.47462
C         70.41848      116.97495       43.28647
O         70.00653      116.79528       44.42435
C         69.61103      114.73136       42.31676
C         70.09571      113.46774       41.55125
C         68.41312      115.37772       41.59792
C         69.03343      112.38171       41.37862
H         71.72123      114.76129       44.14812
H         71.10982      116.02674       41.45449
H         69.27647      114.42413       43.33264
H         70.93436      113.00480       42.11072
H         70.46926      113.75639       40.54598
H         68.09109      116.30405       42.11703
H         68.66844      115.60790       40.54395
H         67.53889      114.69680       41.59577
H         69.48817      111.50486       40.87012
H         68.64581      112.05903       42.36726
H         68.19560      112.73330       40.74326
N         70.58243      118.26465       42.85646
C         71.06539      118.68766       41.54445
C         71.65570      120.08926       41.63277
O         70.97778      121.02139       42.04214
C         69.92662      118.60257       40.51629
C         70.30009      119.17457       39.18281
O         69.50193      120.09235       38.61034
O         71.31700      118.81591       38.61393
H         70.37368      119.00634       43.54411
H         71.89492      118.02542       41.21842
H         69.02603      119.13607       40.89092
H         69.66815      117.54299       40.37051
N         72.95641      120.28041       41.27639
C         73.68342      121.52058       41.44658
C         73.17971      122.67892       40.62297
O         72.93989      123.73346       41.19363
H         73.49954      119.47916       40.91863
H         74.73686      121.34661       41.13273
H         73.70058      121.79170       42.52420
N         73.10883      122.59293       39.26458
C         72.97212      123.77095       38.40848
C         71.71359      123.81482       37.55626
O         71.56121      124.79737       36.84452
C         74.27229      123.91579       37.57264
C         74.69988      122.67891       36.81796
O         74.02994      122.23049       35.90796
O         75.85608      122.06787       37.13986
H         73.27886      121.67816       38.81839
H         72.90405      124.69474       39.02365
H         75.08956      124.14359       38.28970
H         74.19542      124.77533       36.87228
N         70.74169      122.85767       37.58829
C         69.53548      122.95592       36.76549
C         69.81431      122.84820       35.27226
O         68.89437      123.03988       34.49079
H         70.84079      122.06290       38.23009
H         69.04132      123.93015       36.97916
H         68.81923      122.15121       37.03448
N         71.05796      122.52943       34.80931
C         71.46233      122.44392       33.41092
C         70.82514      121.27688       32.67452
O         71.05756      121.15859       31.47780
C         71.31353      123.80571       32.68960
C         72.11515      124.89631       33.43040
C         72.17449      126.22627       32.72546
N         72.84851      127.25132       33.29861
O         71.63094      126.38834       31.64282
H         71.78879      122.33042       35.48890
H         72.55205      122.21635       33.38671
H         70.24876      124.10912       32.60213
H         71.73084      123.70017       31.66390
H         73.16190      124.54912       33.57271
H         71.65652      125.06292       34.42228
H         73.31217      127.12881       34.21187
H         72.91047      128.16836       32.83259
N         70.09877      120.32003       33.32699
C         69.55975      119.13301       32.67128
C         70.17755      117.83865       33.20671
O         69.86225      116.79480       32.65733
C         68.00906      119.08745       32.81373
C         67.54559      118.99861       34.28208
C         67.35729      120.29982       32.13561
H         69.94589      120.40954       34.33994
H         69.80093      119.15530       31.58530
H         67.64046      118.17824       32.28884
H         66.44012      118.90314       34.32691
H         67.98178      118.10804       34.78111
H         67.82843      119.90450       34.85758
H         67.64102      120.33579       31.06263
H         66.25053      120.22293       32.19817
H         67.67257      121.24679       32.62257
N         71.01076      117.81263       34.29486
C         71.48947      116.56793       34.89514
C         72.99038      116.60587       35.16026
O         73.55586      117.67471       35.33010
C         70.73116      116.38692       36.22585
C         71.12999      115.16001       37.00748
N         71.67139      115.27793       38.24387
O         70.95974      114.05172       36.52337
H         71.23696      118.68555       34.78773
H         71.25916      115.69654       34.24474
H         69.64005      116.33542       36.02107
H         70.90872      117.28654       36.83869
H         71.82534      116.20219       38.67213
H         71.94955      114.44110       38.77597
N         73.67380      115.42965       35.29278
C         75.05758      115.33557       35.75373
C         75.54447      113.90191       35.61919
O         74.93139      113.00541       36.18179
C         75.14318      115.78074       37.23395
C         76.49601      115.52476       37.86233
C         77.66310      116.11244       37.34754
C         76.59250      114.67940       38.98135
C         78.90401      115.85279       37.94159
C         77.82976      114.42769       39.57653
C         78.98988      115.00928       39.05980
O         80.17698      114.75053       39.64439
H         73.16637      114.55550       35.09090
H         75.70599      115.98728       35.12939
H         74.37032      115.22294       37.80608
H         74.90373      116.86061       37.32091
H         77.61420      116.76538       36.48593
H         75.70776      114.21339       39.39420
H         79.79736      116.30747       37.53304
H         77.88621      113.77675       40.43898
H         81.00543      115.13078       39.31990
N         76.66795      113.63020       34.89228
C         77.19299      112.28780       34.69656
C         78.58981      112.21029       35.31141
O         79.50783      112.75314       34.71263
C         77.20913      112.00602       33.17555
C         77.73187      110.61697       32.79010
C         77.72500      110.45488       31.29427
O         76.98213      109.48914       30.72122
O         78.39500      111.19577       30.59114
H         77.17967      114.41150       34.45476
H         76.52017      111.55156       35.16782
H         77.83750      112.77777       32.67605
H         76.17107      112.11232       32.78806
H         77.08639      109.83925       33.25022
H         78.77276      110.48047       33.15261
N         78.86029      111.63539       36.52703
C         77.85657      111.09569       37.44556
C         77.16885      109.84976       36.92057
O         77.59012      109.29331       35.91572
C         78.45926      110.82415       38.85390
C         79.57245      109.75350       38.89671
C         80.06975      109.57084       40.30759
O         79.25427      109.07549       41.25876
O         81.20241      109.91214       40.60802
H         79.83702      111.69319       36.85217
H         77.08486      111.88612       37.57707
H         77.64163      110.52166       39.54336
H         78.87840      111.77782       39.24151
H         80.42044      110.08117       38.26096
H         79.20590      108.77740       38.51601
N         76.06424      109.37827       37.56582
C         75.31184      108.21852       37.13719
H         74.26976      108.52620       36.90681
H         75.74571      107.74185       36.23410
H         75.29053      107.47242       37.95849
H         75.71687      109.87902       38.39787
Ca        78.45304      110.55357       42.73986
O         81.39609      110.51189       44.38042
H         81.78490      110.46563       45.28997
H         82.03818      110.01892       43.81047
O         79.02202      111.76888       46.13265
H         79.78096      111.48252       46.70028
H         78.77027      112.65813       46.48782
O         80.22227      113.01609       42.51875
H         79.51377      113.70747       42.51307
H         80.87501      113.33556       43.19093

Ca 1.0



