%chk=apoCaM-CA-Ng.loop2.water3.frame308.chk
%nprocshared=20
%mem=10GB
%nosave
#b3lyp/svp scf=(tight,noincore,xqc) Test 
#IOP(5/87=12) Density=Current Pop=(MK,readradii) iop(6/33=2) iop(6/42=6)

apoCaM-CA-Ng.loop2.water3.frame308 

   -2  1 
C         54.90756       80.81243       26.24209
C         54.04627       81.82499       26.94023
O         52.96506       82.10777       26.45170
H         55.86141       80.64497       26.78512
H         54.36632       79.84722       26.16271
H         55.14845       81.17884       25.22084
N         54.45956       82.41013       28.09876
C         53.71250       83.46289       28.78474
C         53.71860       84.72101       27.92846
O         54.79408       85.14461       27.52460
C         54.36751       83.74356       30.15802
C         53.61724       84.72731       31.02257
O         52.57892       85.24803       30.64607
O         54.09418       85.02113       32.24666
H         55.35534       82.09750       28.50530
H         52.67562       83.11048       28.98480
H         55.40605       84.11155       30.01065
H         54.41523       82.78718       30.72350
N         52.56497       85.38872       27.62544
C         52.56977       86.57787       26.77288
C         52.86812       86.22523       25.31952
O         53.14374       87.12444       24.53817
C         51.22987       87.31428       26.85118
H         51.67572       85.05861       28.03115
H         53.35230       87.27029       27.15817
H         51.01840       87.60012       27.90375
H         51.26305       88.24222       26.24029
H         50.40648       86.66701       26.48078
N         52.79162       84.93293       24.88567
C         53.08173       84.46389       23.53941
C         52.13292       85.09414       22.53214
O         52.57679       85.67361       21.54946
C         54.58398       84.66796       23.22966
C         55.04215       84.03539       21.94309
O         56.21230       84.13770       21.61303
O         54.19084       83.34798       21.15564
H         52.48543       84.21375       25.54594
H         52.88781       83.36701       23.52604
H         55.17621       84.20887       24.05240
H         54.81996       85.75229       23.19746
N         50.78667       85.03031       22.73747
C         49.83279       85.62364       21.82029
C         49.55555       84.70594       20.65593
O         49.85875       85.06164       19.52621
H         50.42967       84.60783       23.60797
H         50.19779       86.62295       21.49367
H         48.86536       85.78903       22.34117
N         48.89536       83.52899       20.86547
C         48.48202       82.63572       19.78554
C         47.49502       81.60552       20.32004
O         47.84999       80.83553       21.20139
C         49.69905       81.93947       19.13917
C         49.28228       81.09261       17.95970
N         49.49151       79.75534       17.95182
O         48.74786       81.62495       16.99803
H         48.60327       83.31053       21.83143
H         47.96250       83.24944       19.01590
H         50.21407       81.31993       19.90506
H         50.42758       82.69248       18.77384
H         49.93744       79.28231       18.74982
H         49.20108       79.18702       17.14224
N         46.21643       81.56705       19.84601
C         45.19750       80.66998       20.36483
C         45.49545       79.22222       20.05987
O         45.57455       78.87139       18.89144
H         45.93138       82.23895       19.11745
H         44.22254       80.91243       19.88855
H         45.08688       80.83991       21.45727
N         45.64899       78.32067       21.07264
C         45.87465       76.89176       20.85505
C         47.27097       76.46642       21.29550
O         47.59313       75.29424       21.14545
C         44.76989       76.05939       21.56931
C         44.83012       76.10346       23.10858
O         43.49511       76.44305       21.11484
H         45.60286       78.66331       22.04354
H         45.80684       76.65917       19.77005
H         44.90897       74.99217       21.28952
H         43.27181       77.31734       21.53060
H         44.02104       75.47244       23.53384
H         45.79458       75.69310       23.46743
H         44.70627       77.13458       23.49808
N         48.15497       77.35505       21.83447
C         49.48945       77.01272       22.30676
C         50.50641       77.80369       21.50353
O         50.35967       79.01419       21.38855
C         49.60521       77.34456       23.82236
C         48.49695       76.66786       24.67357
C         51.00258       76.99229       24.36605
C         48.49083       75.13499       24.64757
H         47.87978       78.34074       21.94315
H         49.69648       75.92752       22.17933
H         49.46583       78.44196       23.94934
H         47.50703       77.03015       24.32714
H         48.60589       76.99602       25.72977
H         51.07045       77.25172       25.44348
H         51.22239       75.91193       24.23879
H         51.78886       77.56645       23.83365
H         47.65773       74.76349       25.28085
H         48.33194       74.74814       23.62210
H         49.43650       74.72248       25.05247
N         51.59842       77.18914       20.96861
C         52.62198       77.88727       20.19839
C         52.88986       77.20122       18.84918
O         53.74952       77.66584       18.11526
C         53.88197       78.00498       21.07841
C         55.00316       78.79083       20.40072
O         54.58886       80.08041       20.04496
O         56.09632       78.92204       21.26533
H         51.74742       76.18794       21.17438
H         52.29404       78.92681       19.97566
H         54.25401       76.99362       21.34472
H         53.60812       78.53033       22.02103
N         52.15551       76.12839       18.42639
C         52.32805       75.50170       17.11804
C         53.66420       74.77055       17.01198
O         53.92924       73.92903       17.85892
C         51.14839       74.53758       16.85060
C         51.22192       73.89426       15.48427
C         50.41959       74.36693       14.43174
C         52.09061       72.81268       15.24933
C         50.49765       73.77707       13.16620
C         52.15930       72.22138       13.98630
C         51.36599       72.70496       12.94408
H         51.39312       75.77656       19.02015
H         52.23834       76.29582       16.34955
H         50.22462       75.15584       16.91150
H         51.06168       73.74893       17.62953
H         49.74510       75.20010       14.58523
H         52.70864       72.41755       16.04442
H         49.88500       74.15189       12.35690
H         52.82775       71.38709       13.81739
H         51.42295       72.24720       11.96536
N         54.52945       74.97811       15.96394
C         55.77550       74.24890       15.75315
C         56.68145       74.24154       16.95836
O         57.14874       73.18247       17.35299
C         56.44850       75.01081       14.60248
C         55.25701       75.43586       13.78500
C         54.28511       75.89751       14.86753
H         55.53137       73.20826       15.43892
H         56.91582       75.94981       14.97786
H         57.22288       74.42894       14.05804
H         55.46002       76.18777       12.99336
H         54.84273       74.51705       13.30872
H         54.49607       76.93107       15.22036
H         53.26229       75.82196       14.44182
N         56.95290       75.40776       17.60240
C         57.81941       75.50445       18.76829
C         57.29389       74.60413       19.87048
O         58.02695       73.73593       20.32312
C         57.88668       76.96196       19.26748
C         58.48024       77.94098       18.23840
C         58.43680       79.34884       18.76341
O         59.09704       79.67340       19.89113
O         57.80098       80.20617       18.16994
H         56.48906       76.25907       17.25358
H         58.84979       75.18413       18.49398
H         58.50007       77.00487       20.19455
H         56.85925       77.28125       19.50616
H         57.90750       77.90895       17.28839
H         59.53164       77.66293       18.01566
N         56.01487       74.73797       20.32278
C         55.43328       73.88961       21.34314
H         54.55444       73.35935       20.91943
H         56.14862       73.12963       21.72224
H         55.09865       74.51505       22.19633
H         55.40970       75.46258       19.91023
Ca        56.23731       81.17723       21.14097
O         55.57043       82.99910       18.12175
H         56.00395       82.82428       17.24877
H         55.43283       83.97966       18.13840
O         58.60942       81.73071       22.71486
H         58.24703       81.37639       23.56564
H         59.35595       82.32128       22.98516
O         58.40355       83.58500       19.54216
H         59.34913       83.39070       19.32253
H         58.19772       84.41555       19.04356

Ca 1.0



