%chk=apoCaM-CA-Ng.loop2.water4.frame487.chk
%nprocshared=20
%mem=10GB
%nosave
#b3lyp/svp scf=(tight,noincore,xqc) Test 
#IOP(5/87=12) Density=Current Pop=(MK,readradii) iop(6/33=2) iop(6/42=6)

apoCaM-CA-Ng.loop2.water4.frame487 

   -2  1 
C         70.31115       53.13285       76.68566
C         71.32268       52.61048       75.70593
O         71.46571       51.40173       75.59078
H         69.30419       52.74937       76.41927
H         70.56970       52.79503       77.71022
H         70.27693       54.24295       76.68149
N         72.05951       53.47066       74.95054
C         73.04309       53.02501       73.97160
C         74.17422       52.26545       74.65106
O         74.82621       52.81581       75.52504
C         73.59671       54.24000       73.19420
C         74.56531       53.83445       72.11679
O         74.20849       53.09515       71.21300
O         75.82962       54.29737       72.13790
H         71.89604       54.48381       75.06285
H         72.53015       52.37054       73.23133
H         74.09598       54.94220       73.89729
H         72.75195       54.77867       72.71074
N         74.49739       51.00709       74.24361
C         75.63644       50.26566       74.77356
C         75.35561       49.67274       76.14518
O         74.41482       48.90244       76.28403
C         76.00775       49.12889       73.81580
H         73.97172       50.60505       73.45199
H         76.52516       50.93634       74.80043
H         76.90797       48.59486       74.18912
H         75.17200       48.40479       73.71263
H         76.24684       49.54697       72.81448
N         76.19174       49.93257       77.19149
C         76.08795       49.29215       78.50777
C         76.40406       47.79226       78.49916
O         76.39584       47.20114       79.57110
C         77.01067       50.02570       79.51717
C         76.46435       51.40261       79.75851
O         77.11749       52.40839       79.53475
O         75.19401       51.47763       80.18832
H         76.95029       50.61594       77.04121
H         75.04444       49.38509       78.88237
H         78.06275       50.04764       79.15766
H         76.98749       49.50482       80.49932
N         76.66438       47.09717       77.35419
C         76.97875       45.67695       77.30946
C         75.88515       44.71588       77.76081
O         76.13608       43.52397       77.64842
H         76.69195       47.58490       76.45233
H         77.89233       45.48832       77.91331
H         77.21367       45.41641       76.25389
N         74.68812       45.10610       78.29951
C         73.68568       44.14811       78.77264
C         72.31302       44.43502       78.18526
O         72.13964       45.41578       77.47418
C         73.63381       44.17655       80.31486
C         74.93691       43.69672       80.90835
N         75.68029       44.49991       81.70293
O         75.32152       42.56045       80.67192
H         74.48199       46.10406       78.43410
H         73.94999       43.11350       78.46042
H         72.83925       43.49852       80.69232
H         73.39349       45.20641       80.65830
H         75.37654       45.45974       81.91915
H         76.56662       44.15796       82.10383
N         71.28590       43.57442       78.44060
C         69.93607       43.72252       77.92084
C         68.91277       43.73300       79.03488
O         69.27800       43.74250       80.20341
H         71.47329       42.73641       79.01258
H         69.72906       42.84255       77.27494
H         69.81808       44.63946       77.30462
N         67.58536       43.67912       78.72858
C         66.54221       43.60059       79.75120
C         66.46195       44.86070       80.60312
O         66.02167       44.76292       81.73989
C         65.15011       43.23943       79.16142
C         64.60143       44.25800       78.14804
O         65.17021       41.95097       78.59653
H         67.32883       43.62787       77.73224
H         66.81080       42.75960       80.43086
H         64.42966       43.20291       80.00824
H         65.73910       41.97519       77.78453
H         65.24327       44.32657       77.24662
H         63.58609       43.94648       77.82317
H         64.52597       45.26318       78.60107
N         66.83744       46.07711       80.11397
C         66.81471       47.31200       80.90138
C         68.21615       47.89561       80.98937
O         69.13477       47.34735       80.39412
C         65.76552       48.32284       80.33888
C         65.95789       48.59397       78.82295
C         64.34647       47.81706       80.66054
C         65.03227       49.67945       78.26882
H         67.16723       46.13332       79.13925
H         66.53490       47.09729       81.95652
H         65.87956       49.28332       80.88566
H         65.77792       47.66584       78.23938
H         67.00344       48.92512       78.64599
H         64.23965       47.66308       81.75602
H         63.57492       48.55783       80.37199
H         64.13378       46.85811       80.15223
H         65.25126       49.83323       77.19101
H         63.96582       49.38667       78.34892
H         65.19535       50.63715       78.80578
N         68.45867       48.98758       81.77549
C         69.79433       49.52771       82.00464
C         70.13029       49.44841       83.50048
O         70.86352       50.28378       84.00761
C         69.84973       50.96765       81.43371
C         71.24106       51.54242       81.35889
O         71.45119       52.75975       80.81913
O         72.20778       50.88457       81.71323
H         67.67284       49.43537       82.27121
H         70.54757       48.92028       81.45695
H         69.18590       51.63500       82.02026
H         69.47197       50.94048       80.38835
N         69.60060       48.45421       84.27218
C         69.81776       48.31590       85.71252
C         69.35269       49.56172       86.46401
O         68.18404       49.90458       86.34072
C         68.99468       47.10511       86.22781
C         68.98151       46.99189       87.73665
C         70.14599       46.68259       88.45726
C         67.78190       47.22085       88.43662
C         70.10794       46.60789       89.85516
C         67.75010       47.15189       89.83020
C         68.91201       46.84522       90.54013
H         68.99213       47.75938       83.81390
H         70.89193       48.11845       85.90423
H         69.36183       46.15847       85.77526
H         67.94724       47.24732       85.87848
H         71.07905       46.50111       87.93944
H         66.87119       47.46867       87.90496
H         71.00577       46.36942       90.40978
H         66.82372       47.34026       90.35795
H         68.88378       46.79293       91.62077
N         70.17068       50.25389       87.32225
C         69.68658       51.31925       88.18671
C         69.45455       52.61877       87.44214
O         68.85680       53.51867       88.01552
C         70.79075       51.44307       89.24174
C         72.03295       51.14401       88.42536
C         71.56909       49.96245       87.57370
H         68.73989       51.01767       88.68845
H         70.79941       52.39489       89.81496
H         70.67962       50.60108       89.96334
H         72.20678       52.01708       87.75547
H         72.96197       50.95659       89.00430
H         72.18123       49.92391       86.64656
H         71.63994       49.00403       88.12888
N         69.92251       52.80667       86.17895
C         69.67044       54.01781       85.41575
C         68.20661       54.05798       85.03849
O         67.52877       55.01879       85.37559
C         70.57505       54.06454       84.16765
C         72.05468       54.16948       84.58523
C         72.97214       54.21083       83.40521
O         72.87698       55.10458       82.57922
O         73.93107       53.27428       83.27305
H         70.48952       52.06799       85.74385
H         69.92620       54.91438       86.02597
H         70.31406       54.95970       83.56089
H         70.41470       53.15952       83.54578
H         72.34086       53.30130       85.21581
H         72.20671       55.09568       85.18004
N         67.64225       53.01922       84.36284
C         66.24008       52.99720       84.01168
H         65.61875       53.06476       84.93040
H         66.00367       53.84773       83.33855
H         65.99675       52.04727       83.48935
H         68.22056       52.20482       84.10843
Ca        73.65188       53.07197       80.47186
O         74.91550       54.33519       77.95472
H         74.32675       53.53951       77.93537
H         75.82787       53.97204       77.83218
O         72.05928       55.25672       78.99153
H         72.44838       55.76889       78.23895
H         71.31315       55.81954       79.31765
O         75.16879       55.89207       80.63891
H         75.93864       55.27503       80.72380
H         75.33634       56.38510       79.79678
O         72.58683       51.11808       78.38753
H         72.58211       50.26110       78.88227
H         73.29968       51.01360       77.70968

Ca 1.0



