%chk=apoCaM-CA-Ng.loop2.water4.frame1423.chk
%nprocshared=20
%mem=10GB
%nosave
#b3lyp/svp scf=(tight,noincore,xqc) Test 
#IOP(5/87=12) Density=Current Pop=(MK,readradii) iop(6/33=2) iop(6/42=6)

apoCaM-CA-Ng.loop2.water4.frame1423 

   -2  1 
C         96.72823       97.85238       87.30709
C         95.54710       97.01020       86.89963
O         95.72130       95.80080       86.86245
H         97.55923       97.67066       86.59381
H         96.55569       98.93829       87.34175
H         97.05700       97.53726       88.31968
N         94.31252       97.49519       86.57286
C         93.88071       98.88973       86.54067
C         93.44073       99.29471       85.13745
O         92.89700      100.38170       84.99328
C         92.74030       99.08469       87.56742
C         91.51526       98.26464       87.27262
O         90.88611       98.44766       86.24392
O         91.09380       97.34030       88.15594
H         93.59719       96.79824       86.31679
H         94.67467       99.59259       86.83890
H         92.44263      100.15550       87.60155
H         93.12514       98.81169       88.57401
N         93.65971       98.49114       84.05235
C         93.17196       98.80222       82.71688
C         92.43677       97.58665       82.16382
O         92.77655       97.12468       81.08192
C         94.36704       99.19861       81.83524
H         94.20361       97.62216       84.15745
H         92.46945       99.66326       82.74425
H         95.09964       98.36380       81.77403
H         94.02983       99.45943       80.80969
H         94.88230      100.08243       82.26875
N         91.46867       96.96033       82.90067
C         90.86679       95.69114       82.48378
C         89.34270       95.67975       82.62589
O         88.75679       96.64180       83.10326
C         91.55109       94.53838       83.25816
C         91.30391       94.63678       84.73219
O         90.04222       94.53460       85.18254
O         92.22240       94.84507       85.50814
H         91.25439       97.32279       83.84207
H         91.08176       95.51049       81.40881
H         92.64463       94.59023       83.05494
H         91.19029       93.55256       82.89972
N         88.64254       94.59607       82.17881
C         87.18902       94.47383       82.17506
C         86.55767       94.25354       83.53591
O         87.24394       94.26968       84.54701
H         89.17094       93.82980       81.73595
H         86.93138       93.57358       81.57691
H         86.73667       95.35624       81.67390
N         85.21343       94.00068       83.60351
C         84.47317       93.76128       84.84222
C         83.83541       92.36532       84.88976
O         83.26938       92.03886       85.92428
C         83.37649       94.84782       84.95982
C         82.56298       94.77453       86.23076
N         83.14312       94.94265       87.44145
O         81.36023       94.56807       86.16185
H         84.68002       93.99034       82.72023
H         85.16334       93.83801       85.71061
H         82.69374       94.74829       84.08607
H         83.83962       95.85337       84.90671
H         84.15250       95.12756       87.52363
H         82.57694       94.89375       88.30178
N         83.86485       91.49162       83.83700
C         83.22138       90.17769       83.87418
C         84.21798       89.06834       83.63570
O         85.38954       89.36388       83.43998
H         84.33665       91.75727       82.96101
H         82.44699       90.13866       83.07883
H         82.72753       89.99525       84.85107
N         83.87225       87.74696       83.62805
C         82.53899       87.18361       83.86847
C         82.52242       86.26000       85.08425
O         81.47117       85.68678       85.33786
C         82.06055       86.38078       82.61846
C         81.39833       87.28712       81.57962
O         83.13408       85.66697       82.05454
H         84.63307       87.07267       83.44446
H         81.78596       87.96742       84.09412
H         81.25975       85.66543       82.91840
H         82.75109       84.98175       81.44765
H         82.08482       88.07810       81.22136
H         81.04738       86.67539       80.72007
H         80.49833       87.75819       82.03601
N         83.60401       86.06863       85.89390
C         83.61046       85.11462       87.00175
C         83.76096       85.86692       88.32499
O         84.68006       86.66880       88.42250
C         84.76336       84.09120       86.78962
C         84.68233       83.37137       85.41341
C         84.82229       83.06223       87.93067
C         83.40717       82.55306       85.17018
H         84.47285       86.59558       85.72146
H         82.67593       84.53228       87.01353
H         85.72765       84.64648       86.80327
H         85.55484       82.68887       85.31822
H         84.76635       84.12420       84.60082
H         84.97608       83.56721       88.90642
H         83.88799       82.46850       87.98875
H         85.67338       82.36744       87.77515
H         83.46453       82.07900       84.16789
H         83.29187       81.74557       85.92080
H         82.50552       83.19677       85.18263
N         82.95689       85.66039       89.41906
C         81.91238       84.63579       89.50238
C         81.68021       84.13557       90.92962
O         82.18258       84.71084       91.88327
C         80.59503       85.13994       88.85805
C         80.02385       86.35136       89.55021
O         79.88206       87.39730       88.93638
O         79.63599       86.28288       90.83826
H         83.18728       86.19509       90.27021
H         82.26776       83.73202       88.97576
H         79.82930       84.33584       88.87123
H         80.77482       85.39934       87.79720
N         80.89595       83.03336       91.12022
C         80.48155       82.51802       92.42217
C         80.85947       81.03850       92.58221
O         80.55712       80.27652       91.67556
C         78.94382       82.61611       92.47634
C         78.41393       82.13866       93.80218
C         77.75810       80.90048       93.89560
C         78.59489       82.91409       94.95846
C         77.30268       80.43896       95.13231
C         78.12861       82.45336       96.19244
C         77.48652       81.21490       96.27989
H         80.51835       82.55973       90.28558
H         80.89545       83.13487       93.24337
H         78.53192       81.99102       91.65216
H         78.59889       83.65757       92.29640
H         77.62036       80.28321       93.01620
H         79.09951       83.87115       94.90262
H         76.81186       79.47713       95.20020
H         78.27072       83.05396       97.08109
H         77.13313       80.85530       97.23679
N         81.41009       80.51703       93.73108
C         81.78880       81.26137       94.91896
C         83.03726       82.06787       94.63200
O         83.03349       83.26185       94.88763
C         81.90097       80.17503       95.99925
C         82.36430       78.95306       95.24136
C         81.59743       79.08502       93.92081
H         80.99611       81.94721       95.27616
H         82.48036       80.44915       96.90629
H         80.86030       79.93719       96.32375
H         83.45007       79.06262       95.07225
H         82.22193       77.98093       95.76018
H         82.17789       78.60598       93.10273
H         80.58998       78.62052       93.99578
N         84.09467       81.50509       93.98646
C         85.19549       82.28441       93.44847
C         86.22275       82.54422       94.53922
O         86.78685       81.58136       95.03964
C         85.83276       81.52305       92.25954
C         84.79405       81.20982       91.15486
C         85.37092       80.42400       90.01044
O         84.64222       80.07819       89.09421
O         86.67198       80.07497       89.98668
H         84.03392       80.52009       93.71429
H         84.78820       83.22453       93.02081
H         86.26383       80.56421       92.62504
H         86.65163       82.13912       91.82773
H         84.36074       82.15768       90.77276
H         83.96201       80.59902       91.56076
N         86.54162       83.79203       94.98788
C         85.92370       85.00962       94.51086
H         84.83587       84.99373       94.72145
H         86.35754       85.88340       95.04176
H         86.09923       85.13346       93.42245
H         87.25942       83.88047       95.72433
Ca        89.04314       96.27149       86.20445
O         87.83256       98.04662       88.36371
H         87.86930       97.42783       89.13544
H         88.45280       98.78041       88.60251
O         88.09928       99.39280       85.40990
H         87.44779       99.84147       86.00553
H         88.85066      100.03269       85.33679
O         86.17799       97.22435       85.76665
H         85.37762       97.67552       85.39831
H         85.83823       96.38287       86.16083
O         89.17178       94.64509       88.48902
H         89.18379       95.22683       89.28968
H         88.38331       94.06004       88.61316

Ca 1.0



