%chk=apoCaM-CA-Ng.loop2.water4.frame493.chk
%nprocshared=20
%mem=10GB
%nosave
#b3lyp/svp scf=(tight,noincore,xqc) Test 
#IOP(5/87=12) Density=Current Pop=(MK,readradii) iop(6/33=2) iop(6/42=6)

apoCaM-CA-Ng.loop2.water4.frame493 

   -2  1 
C         64.69005       54.71939       64.50802
C         65.07330       54.47794       63.07642
O         64.44076       53.67181       62.40943
H         63.82456       54.08773       64.80055
H         65.54900       54.48339       65.17073
H         64.41344       55.78657       64.64447
N         66.11014       55.16962       62.53240
C         66.53153       55.02802       61.14230
C         67.04761       53.61818       60.87063
O         67.96963       53.17893       61.54255
C         67.60603       56.09115       60.82338
C         67.98899       56.11046       59.36717
O         68.57943       55.04108       58.80070
O         67.78131       57.10769       58.69404
H         66.59764       55.85327       63.13412
H         65.65882       55.25240       60.48848
H         68.51372       55.92870       61.44363
H         67.18754       57.08986       61.08544
N         66.52564       52.87597       59.85114
C         66.99750       51.53512       59.50589
C         66.50585       50.51275       60.51948
O         65.30439       50.41674       60.73008
C         66.51107       51.15238       58.10616
H         65.80397       53.31260       59.25691
H         68.10980       51.54452       59.44893
H         66.88913       51.89412       57.36868
H         66.90890       50.15358       57.82591
H         65.40230       51.13364       58.05839
N         67.38663       49.72735       61.20225
C         66.97562       48.81894       62.27559
C         66.16826       47.61252       61.79725
O         66.07207       47.34589       60.60793
C         68.20960       48.29390       63.05767
C         68.99316       49.38425       63.73739
O         69.56400       50.24268       63.08535
O         69.09719       49.39539       65.08030
H         68.38993       49.84306       60.99808
H         66.34068       49.38834       62.98421
H         68.88040       47.72454       62.37770
H         67.87478       47.59842       63.85571
N         65.60522       46.80798       62.74618
C         64.96077       45.52108       62.53521
C         63.65904       45.53606       61.76890
O         63.30706       46.52278       61.13882
H         65.69777       47.09630       63.73227
H         64.71366       45.12645       63.54608
H         65.66613       44.80271       62.06596
N         62.86840       44.42188       61.84104
C         61.58031       44.24899       61.16740
C         60.60740       45.37542       61.49620
O         60.80779       46.09603       62.46528
C         60.99821       42.86877       61.57150
C         59.65967       42.53344       60.96675
N         58.58661       42.30478       61.76239
O         59.54566       42.44731       59.75364
H         63.21388       43.64299       62.42518
H         61.77360       44.27706       60.07212
H         60.91026       42.84600       62.68068
H         61.71678       42.07219       61.27793
H         58.66505       42.36286       62.78899
H         57.67156       42.06365       61.35483
N         59.57998       45.64833       60.63979
C         58.72239       46.81258       60.78163
C         57.76476       46.72608       61.94240
O         57.67977       45.69693       62.59760
H         59.46630       45.07258       59.79239
H         58.10640       46.93231       59.86439
H         59.36483       47.71364       60.88191
N         57.00758       47.81971       62.24734
C         56.02443       47.84858       63.32847
C         56.53897       48.60840       64.54009
O         55.90846       48.52063       65.58747
C         54.66993       48.42030       62.82941
C         54.73803       49.90238       62.40319
O         54.15692       47.63284       61.78396
H         57.17087       48.67983       61.70458
H         55.85328       46.80972       63.68579
H         53.94525       48.36640       63.67077
H         54.71876       47.78992       60.98003
H         53.72994       50.25475       62.10065
H         55.08250       50.53676       63.24361
H         55.42228       50.05684       61.54389
N         57.67233       49.36118       64.48829
C         58.29938       49.96753       65.65486
C         59.78558       49.65613       65.64705
O         60.27412       49.07854       64.68057
C         58.01162       51.49677       65.77686
C         58.51041       52.39408       64.60917
C         56.53044       51.75019       66.09943
C         57.71647       52.33851       63.29617
H         58.16275       49.45732       63.59013
H         57.90098       49.49011       66.57881
H         58.56912       51.84274       66.67420
H         59.58231       52.18281       64.40855
H         58.44252       53.44878       64.95636
H         55.87147       51.40934       65.27817
H         56.24213       51.19924       67.02065
H         56.35408       52.83157       66.28006
H         57.75624       51.35851       62.79895
H         56.65579       52.61777       63.46115
H         58.14752       53.07339       62.58485
N         60.57167       49.98562       66.70853
C         61.99448       49.68297       66.74976
C         62.25493       48.69596       67.88496
O         63.20644       48.84311       68.63586
C         62.74125       51.03105       66.81696
C         64.23077       50.98300       66.67931
O         64.90393       52.14781       66.63886
O         64.83902       49.92645       66.61159
H         60.15029       50.45073       67.52859
H         62.30468       49.17274       65.81204
H         62.48594       51.55076       67.76665
H         62.37353       51.65738       65.97490
N         61.38858       47.65364       68.06021
C         61.49675       46.61708       69.08469
C         61.62706       47.20177       70.48805
O         60.77383       47.98740       70.87760
C         60.25367       45.69402       68.99782
C         60.21447       44.62804       70.06823
C         60.66989       43.32672       69.80424
C         59.69795       44.92833       71.34291
C         60.62122       42.34839       70.80364
C         59.64600       43.94791       72.33535
C         60.10963       42.65877       72.06725
H         60.57879       47.59997       67.42355
H         62.37591       45.98918       68.84810
H         60.25581       45.21585       67.99322
H         59.31187       46.28423       69.05988
H         61.06848       43.07226       68.83044
H         59.32511       45.91927       71.56766
H         60.97877       41.34816       70.59863
H         59.24318       44.18862       73.31103
H         60.06888       41.90046       72.83816
N         62.63816       46.81884       71.33523
C         62.74389       47.25604       72.71950
C         63.21581       48.69270       72.82040
O         62.87854       49.35303       73.79282
C         63.74437       46.26092       73.32397
C         64.66840       45.97121       72.16333
C         63.68381       45.86521       71.00179
H         61.78502       47.13901       73.27301
H         64.23352       46.58764       74.26668
H         63.20057       45.30953       73.52727
H         65.30591       46.86963       72.01580
H         65.33751       45.09243       72.27998
H         64.22795       46.11510       70.06536
H         63.22610       44.85354       70.93399
N         63.99041       49.24672       71.84742
C         64.44799       50.62887       71.87287
C         63.24706       51.55651       71.88151
O         63.14411       52.37778       72.78189
C         65.35312       50.91450       70.65586
C         66.65485       50.07899       70.68333
C         67.42061       50.30938       69.41837
O         67.55163       49.40401       68.60924
O         67.83275       51.54761       69.10082
H         64.24883       48.66506       71.03978
H         65.05562       50.80995       72.78806
H         65.62506       51.99311       70.64293
H         64.78574       50.69405       69.72456
H         66.41719       48.99705       70.74938
H         67.27763       50.35323       71.56057
N         62.27567       51.44526       70.93095
C         61.07941       52.26296       70.90776
H         60.18746       51.60980       71.01656
H         61.06188       53.01354       71.72579
H         61.01608       52.79700       69.93736
H         62.36660       50.72570       70.20061
Ca        67.09110       52.11231       67.08200
O         66.25311       51.69752       64.11734
H         65.32943       51.40240       63.91727
H         66.67095       51.80819       63.22912
O         68.07372       54.98564       66.77450
H         67.31644       55.12027       67.39790
H         68.69704       54.39284       67.26558
O         70.25248       51.45890       67.24546
H         70.39182       51.82994       68.15245
H         71.00032       51.82622       66.71100
O         69.37840       53.22071       64.70498
H         69.51558       52.24174       64.69225
H         68.65846       53.37708       64.04527

Ca 1.0



