%chk=apoCaM-CA-Ng.loop1.water2.frame235.chk
%nprocshared=20
%mem=10GB
%nosave
#b3lyp/svp scf=(tight,noincore,xqc) Test 
#IOP(5/87=12) Density=Current Pop=(MK,readradii) iop(6/33=2) iop(6/42=6)

apoCaM-CA-Ng.loop1.water2.frame235 

   0  1 
C         40.39675       11.18222      105.36514
C         39.07029       10.54950      105.67240
O         38.04681       11.18471      105.46578
H         41.23716       10.48924      105.58557
H         40.44005       11.44880      104.28849
H         40.52653       12.09810      105.97727
N         39.01805        9.28463      106.16938
C         37.78358        8.57274      106.46935
C         37.70586        8.23657      107.95903
O         36.87517        7.42797      108.33459
C         37.73267        7.29295      105.60373
C         37.71375        7.59594      104.12747
O         38.75979        8.20890      103.54128
O         36.75452        7.26654      103.44720
H         39.90356        8.78110      106.33813
H         36.88258        9.17010      106.21919
H         36.80764        6.73728      105.83649
H         38.59730        6.63311      105.83195
N         38.52071        8.83777      108.87347
C         38.57931        8.47670      110.28848
C         38.17620        9.66447      111.14616
O         38.71304       10.73690      110.90326
C         40.03284        8.06678      110.61637
C         40.55587        6.90735      109.73617
C         39.77022        5.59078      109.86513
C         39.91434        4.94719      111.25101
N         39.09052        3.74335      111.35345
H         39.16858        9.57563      108.56048
H         37.93218        7.61899      110.51997
H         40.11687        7.80610      111.69099
H         40.69938        8.94067      110.44238
H         41.62265        6.71778      109.98187
H         40.51773        7.22888      108.67272
H         40.16088        4.87334      109.11215
H         38.70169        5.76263      109.62635
H         39.60894        5.65325      112.04330
H         40.98155        4.68867      111.42646
H         39.37281        3.04729      110.62628
H         39.22028        3.32088      112.30059
H         38.08069        3.99018      111.23159
N         37.30252        9.61094      112.20260
C         36.60328        8.45130      112.76663
C         37.55207        7.34618      113.20072
O         37.35389        6.20798      112.80094
C         35.44433        7.95691      111.86807
C         34.40567        9.01900      111.66852
O         34.51701       10.20728      112.29204
O         33.47162        8.81912      110.90874
H         37.15906       10.49589      112.71602
H         36.10914        8.78161      113.70832
H         34.94304        7.08485      112.34010
H         35.81857        7.64327      110.87713
N         38.56494        7.56399      114.09039
C         38.89648        8.87962      114.61694
C         39.91221        8.78105      115.74217
O         40.93991        8.15482      115.52594
H         39.10650        6.74550      114.41079
H         37.96096        9.34202      114.95772
H         39.32590        9.49741      113.80135
N         39.72618        9.32266      116.98653
C         38.63361       10.21712      117.37255
C         37.57045        9.47819      118.15476
O         37.76183        8.31815      118.49581
C         39.19099       11.43777      118.13974
C         39.86592       11.06701      119.43636
O         39.16710       10.47538      120.42451
O         41.04897       11.31607      119.60430
H         40.43087        9.09899      117.70690
H         38.13948       10.64297      116.48408
H         38.37204       12.15285      118.36654
H         39.91978       11.96054      117.48119
N         36.39192       10.09837      118.45236
C         35.33804        9.45935      119.22006
C         34.73271        8.23590      118.55783
O         33.94264        7.57854      119.21944
H         36.24465       11.07308      118.14872
H         34.51899       10.18662      119.41124
H         35.76524        9.16083      120.20149
N         35.02874        7.86375      117.27516
C         34.50478        6.64559      116.65909
C         35.66462        5.75407      116.22073
O         36.79281        6.22302      116.16597
C         33.60091        7.02413      115.45613
C         32.41282        7.89250      115.88426
O         33.10062        5.86824      114.84126
H         35.64288        8.45738      116.69878
H         33.90230        6.07006      117.39496
H         34.22271        7.60110      114.73210
H         32.92132        6.09969      113.89122
H         31.77288        7.33945      116.60445
H         32.75652        8.83777      116.35261
H         31.80006        8.15246      114.99434
N         35.45361        4.44070      115.90725
C         36.49808        3.55797      115.37922
C         36.11319        3.00035      114.00999
O         36.88920        2.22847      113.46182
C         36.81134        2.37533      116.34777
C         35.62017        1.39196      116.50363
C         37.30366        2.89659      117.70822
C         36.02963        0.05717      117.13033
H         34.50786        4.05196      116.03938
H         37.44634        4.12357      115.24067
H         37.65281        1.81198      115.88357
H         35.22297        1.12629      115.50400
H         34.79897        1.86095      117.08649
H         36.49934        3.45817      118.22902
H         37.63333        2.06327      118.36092
H         38.17605        3.56921      117.56716
H         36.41276        0.18046      118.16134
H         35.15024       -0.62004      117.16320
H         36.81157       -0.42685      116.50405
N         34.92998        3.31708      113.40873
C         34.46638        2.72561      112.16530
C         34.47672        3.78535      111.08627
O         33.89184        4.84539      111.26163
C         33.08253        2.04348      112.34671
C         31.92605        2.97555      112.74977
O         33.18639        0.98170      113.26332
H         34.31302        4.01175      113.83700
H         35.15321        1.90979      111.84931
H         32.80481        1.59910      111.36605
H         33.28434        1.37177      114.17078
H         30.98897        2.38381      112.82255
H         32.10855        3.44519      113.73776
H         31.76538        3.76661      111.99102
N         35.18260        3.56360      109.94512
C         35.37765        4.56045      108.89712
C         34.06983        5.06313      108.28159
O         33.00100        4.57521      108.62139
C         36.33083        3.99099      107.80427
C         35.72314        2.80521      107.03620
O         37.53515        3.59172      108.40753
H         35.65627        2.65293      109.84999
H         35.87819        5.42949      109.37058
H         36.54996        4.79590      107.07312
H         38.22802        3.57277      107.69649
H         35.49807        1.95271      107.70942
H         34.78819        3.10921      106.52135
H         36.44058        2.45332      106.26527
N         34.11159        6.03944      107.32761
C         32.95543        6.55057      106.60411
C         32.86127        8.08538      106.67655
O         31.92604        8.63171      106.10971
C         33.09758        6.04287      105.14711
C         31.87132        6.28692      104.24862
C         31.98922        5.59490      102.87863
C         33.12095        6.15756      102.00201
N         33.14777        5.49204      100.69925
H         35.02647        6.39628      107.03868
H         32.02150        6.12098      107.02743
H         33.24047        4.93983      105.20046
H         34.01024        6.48710      104.69616
H         31.70025        7.36905      104.08357
H         30.97999        5.86104      104.75891
H         31.02737        5.74192      102.34073
H         32.13634        4.50239      103.02656
H         34.10441        6.00940      102.49582
H         32.96191        7.24843      101.85200
H         33.32722        4.46884      100.82247
H         32.23820        5.63261      100.20222
H         33.91558        5.90201      100.11994
N         33.77383        8.85680      107.34786
C         33.72471       10.32102      107.35007
C         33.90248       10.85796      105.94386
O         34.91679       10.58667      105.31620
C         34.80892       10.91047      108.28777
C         34.95029       12.45225      108.23237
C         33.66125       13.22976      108.39716
O         32.93553       13.17430      109.53128
O         33.27748       13.94822      107.48835
H         34.53431        8.40375      107.87022
H         32.74134       10.64780      107.75455
H         35.80461       10.48713      108.03210
H         34.57659       10.58809      109.31837
H         35.38746       12.71641      107.24434
H         35.68094       12.77280      109.00619
N         32.95513       11.67086      105.40307
C         33.10539       12.26538      104.09495
H         32.22938       12.91154      103.87330
H         34.02116       12.89481      104.07099
H         33.17549       11.47249      103.32193
H         32.10958       11.90042      105.94704
Ca        33.69029       11.98904      111.25840
O         31.63148       11.10522      114.45113
H         32.19547       11.25536      115.25091
H         30.72828       10.92391      114.81453
O         30.25369       11.89703      111.68830
H         29.89432       12.42443      112.44556
H         29.98211       10.96511      111.88434

Ca 1.0



