%chk=apoCaM-CA-Ng.loop3.water3.frame891.chk
%nprocshared=20
%mem=10GB
%nosave
#b3lyp/svp scf=(tight,noincore,xqc) Test 
#IOP(5/87=12) Density=Current Pop=(MK,readradii) iop(6/33=2) iop(6/42=6)

apoCaM-CA-Ng.loop3.water3.frame891 

   0  1 
C         11.38049      -23.67807        0.99468
C         11.33998      -24.66646       -0.13359
O         10.37134      -24.68643       -0.87926
H         12.25031      -23.00046        0.84817
H         10.45897      -23.05752        1.01403
H         11.48943      -24.20399        1.96437
N         12.40343      -25.48854       -0.35024
C         12.51277      -26.33585       -1.53034
C         11.47513      -27.46430       -1.53393
O         11.47188      -28.27652       -0.61962
C         13.95734      -26.88326       -1.66338
C         14.23354      -27.38703       -3.05729
O         15.31407      -27.87489       -3.34163
O         13.27701      -27.24946       -3.99236
H         13.20685      -25.41951        0.29385
H         12.35444      -25.66867       -2.39899
H         14.12947      -27.67704       -0.90384
H         14.68197      -26.06173       -1.47846
N         10.55257      -27.55756       -2.53871
C          9.49834      -28.57312       -2.59845
C         10.05082      -29.98180       -2.84212
O          9.34492      -30.93017       -2.52819
C          8.45438      -28.14754       -3.66852
C          7.23821      -29.06975       -3.86538
C          6.25376      -28.43335       -4.86839
C          5.05243      -29.34307       -5.16350
N          4.11012      -28.68734       -6.07364
H         10.57374      -26.84419       -3.27788
H          8.97248      -28.56657       -1.61730
H          8.95818      -28.04665       -4.64396
H          8.08019      -27.14056       -3.37650
H          6.71813      -29.22469       -2.89582
H          7.57927      -30.05141       -4.25847
H          6.77785      -28.22129       -5.82677
H          5.88508      -27.47112       -4.44868
H          4.52680      -29.59280       -4.21591
H          5.41303      -30.28807       -5.62739
H          3.31766      -29.33837       -6.27825
H          3.72559      -27.82142       -5.62986
H          4.58281      -28.43929       -6.97326
N         11.27224      -30.20224       -3.42439
C         11.82755      -31.54062       -3.67279
C         13.22832      -31.73785       -3.04471
O         13.75344      -32.83830       -3.14099
C         11.83615      -31.82975       -5.20065
C         12.71972      -30.87053       -5.93870
O         12.27737      -30.01491       -6.86448
O         13.87956      -30.77208       -5.61786
H         11.81392      -29.39047       -3.74873
H         11.16787      -32.31129       -3.21538
H         10.79961      -31.75741       -5.59388
H         12.20266      -32.86428       -5.37742
N         13.87489      -30.74236       -2.36467
C         15.13101      -30.91323       -1.63527
C         16.44005      -30.83838       -2.42394
O         17.46784      -30.84381       -1.76072
H         13.39342      -29.84605       -2.22690
H         15.09284      -31.84248       -1.02573
H         15.19579      -30.06945       -0.91387
N         16.51934      -30.75511       -3.78719
C         17.78697      -30.60338       -4.51514
C         17.76675      -29.41802       -5.48314
O         16.71777      -28.83915       -5.72694
C         18.16631      -31.89178       -5.29815
C         17.40121      -32.10835       -6.59075
N         16.08471      -32.40762       -6.60028
O         17.99892      -32.01876       -7.65390
H         15.65917      -30.80189       -4.31596
H         18.60149      -30.43206       -3.77846
H         18.09332      -32.78684       -4.64461
H         19.23791      -31.79230       -5.57971
H         15.56680      -32.53610       -5.72351
H         15.58717      -32.53570       -7.49503
N         18.91766      -29.05656       -6.11988
C         19.00901      -28.09699       -7.21099
C         18.49377      -26.71441       -6.88090
O         18.90221      -26.13523       -5.88514
H         19.79208      -29.53673       -5.85850
H         18.47040      -28.50274       -8.09497
H         20.07895      -28.00331       -7.49805
N         17.63837      -26.09486       -7.74776
C         17.12812      -24.73669       -7.56633
C         16.15873      -24.64631       -6.40358
O         15.87971      -25.65205       -5.76329
C         16.40610      -24.27119       -8.86095
C         17.35868      -24.05779      -10.00954
C         18.33956      -23.05401       -9.92535
C         17.25945      -24.82327      -11.18218
C         19.20725      -22.82097      -10.99390
C         18.13179      -24.58970      -12.25097
C         19.10600      -23.58853      -12.16208
O         19.93356      -23.36950      -13.20356
H         17.37909      -26.59957       -8.61006
H         17.97404      -24.04637       -7.35867
H         15.89227      -23.29922       -8.71721
H         15.62228      -25.01325       -9.12102
H         18.42519      -22.44168       -9.03613
H         16.50671      -25.59647      -11.27202
H         19.95285      -22.03975      -10.91374
H         18.04658      -25.18377      -13.15185
H         20.61419      -22.68138      -13.18271
N         15.59780      -23.43676       -6.09644
C         14.59264      -23.18503       -5.06848
C         13.30867      -23.93100       -5.40144
O         13.35702      -25.13338       -5.58239
C         15.10914      -23.50692       -3.63447
C         14.10588      -23.04756       -2.53472
C         16.49766      -22.88945       -3.38531
C         13.82579      -21.53764       -2.47998
H         15.89542      -22.61184       -6.63949
H         14.38195      -22.09765       -5.09698
H         15.22931      -24.60651       -3.53141
H         14.50212      -23.35573       -1.54261
H         13.13532      -23.56074       -2.67959
H         16.84353      -23.12558       -2.35630
H         17.24412      -23.31352       -4.08900
H         16.48453      -21.78911       -3.52242
H         14.75358      -20.95848       -2.29903
H         13.34416      -21.17400       -3.40891
H         13.12504      -21.32455       -1.64609
N         12.10740      -23.28497       -5.45479
C         10.86052      -24.00224       -5.72558
C          9.97159      -23.33000       -6.75866
O          8.96507      -23.93661       -7.11290
C         10.10145      -24.18448       -4.41200
O          9.74863      -22.93983       -3.87399
H         12.07117      -22.29152       -5.19279
H         11.08740      -25.01763       -6.11625
H         10.78426      -24.71586       -3.72064
H          9.18980      -24.80273       -4.56901
H          9.67797      -23.06850       -2.89291
N         10.22249      -22.08935       -7.26870
C          9.32469      -21.45865       -8.23303
C          9.35222      -22.21540       -9.55441
O         10.26344      -23.00950       -9.74537
C          9.73341      -19.99983       -8.44074
H         11.04263      -21.55753       -6.94392
H          8.29936      -21.48342       -7.80096
H          9.69314      -19.45867       -7.47070
H         10.76719      -19.93880       -8.84240
H          9.05304      -19.49377       -9.14232
N          8.38524      -22.10985      -10.51246
C          7.15238      -21.33280      -10.42582
C          6.80328      -20.76973      -11.79955
O          6.84626      -21.53612      -12.75336
C          6.02234      -22.27180       -9.99535
H          8.47493      -22.75205      -11.31673
H          7.19984      -20.55078       -9.64799
H          5.89532      -23.10568      -10.71846
H          6.24839      -22.70023       -8.99547
H          5.06641      -21.70864       -9.92289
N          6.35629      -19.50038      -12.02426
C          6.09548      -18.49882      -10.99511
C          7.36161      -17.82720      -10.49772
O          7.35403      -17.31219       -9.38776
C          5.07047      -17.45926      -11.51128
C          5.58969      -16.56844      -12.65782
C          4.45711      -15.81073      -13.29112
O          3.70335      -14.96938      -12.55898
O          4.20521      -15.96894      -14.47587
H          6.05893      -19.29838      -12.99039
H          5.58551      -19.00955      -10.14829
H          4.73232      -16.80407      -10.67781
H          4.18602      -18.03442      -11.86662
H          6.07139      -17.17757      -13.44879
H          6.34950      -15.85758      -12.26814
N          8.47157      -17.73969      -11.28458
C          9.67875      -17.06909      -10.84917
H         10.43715      -17.09164      -11.66027
H          9.45931      -16.01008      -10.59676
H         10.10343      -17.57519       -9.95929
H          8.45971      -18.13745      -12.23521
Ca        12.87910      -28.02231       -6.05975
O         15.28576      -29.14797       -8.41938
H         14.57804      -29.80826       -8.62782
H         15.64570      -28.88219       -9.30270
O         13.50457      -26.36372       -8.48540
H         13.76187      -26.84238       -9.31300
H         12.56489      -26.09163       -8.63550
O         10.19389      -27.43729       -6.74753
H         10.57496      -27.51602       -7.65661
H         10.36003      -28.32309       -6.33787

Ca 1.0



