%chk=apoCaM-CA-Ng.loop1.water3.frame418.chk
%nprocshared=20
%mem=10GB
%nosave
#b3lyp/svp scf=(tight,noincore,xqc) Test 
#IOP(5/87=12) Density=Current Pop=(MK,readradii) iop(6/33=2) iop(6/42=6)

apoCaM-CA-Ng.loop1.water3.frame418 

   0  1 
C        107.54514       96.27950       71.50974
C        106.53196       97.05434       70.71565
O        105.53951       96.48026       70.29139
H        108.39206       96.92533       71.82789
H        107.06671       95.86210       72.42012
H        107.95040       95.45144       70.89294
N        106.71506       98.38275       70.48878
C        105.76348       99.21758       69.76247
C        105.85822       99.03469       68.24489
O        105.22956       99.81570       67.54721
C        105.99791      100.71086       70.11018
C        105.79996      101.00447       71.57797
O        106.60749      100.45756       72.50647
O        104.91169      101.76159       71.93425
H        107.54870       98.83163       70.89784
H        104.72836       98.99693       70.10086
H        105.25883      101.32377       69.54811
H        107.01636      101.03088       69.80205
N        106.61085       98.06226       67.64483
C        106.83883       98.02055       66.20166
C        106.20507       96.83436       65.50076
O        106.24760       95.74638       66.05847
C        108.35016       97.95106       65.91738
C        109.06733       99.26983       66.20992
C        110.43753       99.27180       65.52088
C        111.11407      100.63979       65.62279
N        112.31594      100.68051       64.79056
H        107.08593       97.34956       68.21425
H        106.43902       98.92756       65.73515
H        108.47400       97.74054       64.84040
H        108.83200       97.09971       66.44807
H        109.14331       99.44560       67.30483
H        108.47667      100.09661       65.76071
H        110.27992       99.06135       64.43986
H        111.09195       98.47637       65.93996
H        111.37097      100.85250       66.68329
H        110.41197      101.42554       65.26311
H        112.99649       99.94836       65.09623
H        112.05758      100.52243       63.78801
H        112.75834      101.62354       64.87330
N        105.75583       96.89136       64.19740
C        105.60567       98.07840       63.33098
C        106.87233       98.92512       63.19846
O        106.88126      100.05247       63.67227
C        104.38181       98.92702       63.75369
C        103.09425       98.16882       63.63196
O        102.05817       98.67133       64.03531
O        103.07802       96.91737       63.13509
H        105.47792       95.99461       63.76853
H        105.34575       97.73750       62.30727
H        104.29458       99.82440       63.10408
H        104.48969       99.25842       64.80365
N        107.97929       98.52003       62.51938
C        108.05396       97.28536       61.75745
C        109.31530       97.21808       60.90506
O        110.22733       98.00501       61.11300
H        108.76445       99.18731       62.48550
H        107.20327       97.30789       61.04689
H        107.96363       96.39377       62.41417
N        109.42506       96.37085       59.84090
C        108.41795       95.38630       59.46252
C        107.59986       95.85708       58.27714
O        108.04457       96.71906       57.53004
C        109.04902       94.00395       59.18973
C        110.00951       93.98780       58.02040
O        109.75653       93.31490       57.03430
O        111.16695       94.67549       58.06362
H        110.24676       96.49761       59.23458
H        107.70377       95.24943       60.29977
H        108.22440       93.28797       58.97976
H        109.58438       93.64976       60.09590
N        106.34326       95.35815       58.09131
C        105.46081       95.76407       57.01043
C        105.24658       97.25619       57.01418
O        105.55257       97.89650       56.01856
H        105.97928       94.66759       58.76668
H        104.47935       95.25456       57.12945
H        105.89890       95.44722       56.03947
N        104.76381       97.88120       58.12364
C        104.63442       99.32949       58.22890
C        105.59554       99.82921       59.28402
O        105.60366       99.30444       60.38510
C        103.17544       99.77018       58.50155
C        102.60184       99.31889       59.84757
O        102.34174       99.29757       57.47542
H        104.53063       97.30730       58.94866
H        104.90375       99.81697       57.26613
H        103.14838      100.88540       58.51100
H        102.47634       99.89680       56.69457
H        101.56467       99.70392       59.94778
H        102.58010       98.21324       59.92024
H        103.18534       99.73508       60.69368
N        106.42252      100.87414       59.01696
C        107.35682      101.42273       59.99530
C        106.74212      102.60422       60.74606
O        107.41633      103.18210       61.58758
C        108.73216      101.72697       59.32254
C        108.64827      102.86781       58.27162
C        109.29793      100.43151       58.70806
C        110.00127      103.23548       57.65659
H        106.31191      101.35556       58.11423
H        107.55627      100.66848       60.78691
H        109.43027      102.05185       60.12632
H        108.24813      103.77823       58.76622
H        107.96848      102.59706       57.43877
H        110.33422      100.57010       58.34108
H        109.33348       99.63848       59.47550
H        108.66446      100.07462       57.86810
H        109.86861      104.08970       56.95981
H        110.72304      103.52740       58.44771
H        110.41872      102.39394       57.06644
N        105.44550      102.98339       60.52994
C        104.77570      104.08756       61.21740
C        104.54720      103.87143       62.72184
O        103.98393      104.76880       63.32757
C        103.41692      104.40049       60.51939
C        102.36641      103.29632       60.70875
O        103.61660      104.59859       59.14253
H        104.90873      102.49238       59.80472
H        105.40962      104.99342       61.09098
H        102.97889      105.32763       60.95610
H        104.11855      105.44881       59.04128
H        101.43164      103.57535       60.17857
H        102.71548      102.32517       60.31111
H        102.12053      103.16709       61.78139
N        104.92991      102.73350       63.38515
C        104.74331      102.46309       64.82196
C        103.26238      102.25014       65.15927
O        102.42586      102.47527       64.29523
C        105.47646      103.54774       65.68167
C        105.87098      103.11616       67.09721
O        104.70560      104.71945       65.77545
H        105.40279      101.99449       62.85231
H        105.25356      101.49746       65.01778
H        106.45005      103.74374       65.16988
H        105.28805      105.48617       65.53629
H        106.48826      102.19335       67.06248
H        106.48280      103.91770       67.56398
H        105.00012      102.97425       67.75734
N        102.85877      101.80801       66.38892
C        101.45581      101.68159       66.78163
C        101.07639      100.28328       67.28973
O         99.94100      100.11212       67.70904
C        101.12685      102.79850       67.79435
C        101.78990      102.66039       69.17311
C        101.48304      103.91190       70.01451
C        102.01032      103.83570       71.45443
N        101.31525      102.81405       72.24047
H        103.56467      101.59890       67.09991
H        100.79604      101.88762       65.91062
H        100.02534      102.83552       67.94579
H        101.43243      103.76433       67.33149
H        102.89148      102.56165       69.08227
H        101.38698      101.74685       69.65515
H        100.38730      104.09628       70.04973
H        101.96213      104.78461       69.51649
H        101.83618      104.82519       71.93290
H        103.10504      103.64609       71.45538
H        101.52180      101.85725       71.87763
H        101.64225      102.86637       73.23176
H        100.28346      102.98765       72.22046
N        101.93920       99.22404       67.22988
C        101.57348       97.86454       67.63726
C        101.40300       97.74636       69.13856
O        102.33059       98.04705       69.87638
C        102.63648       96.85574       67.14363
C        102.36346       95.38217       67.52887
C        100.97571       94.86862       67.19670
O        100.51157       94.81723       65.93089
O        100.25798       94.47029       68.09973
H        102.86529       99.36715       66.80825
H        100.62829       97.58501       67.12507
H        103.63939       97.13150       67.53852
H        102.68895       96.94013       66.04503
H        102.51645       95.28134       68.62557
H        103.12267       94.74205       67.02983
N        100.25183       97.23340       69.65471
C        100.07980       96.98721       71.06970
H         99.08643       96.52405       71.25361
H        100.86120       96.28099       71.42686
H        100.14774       97.93752       71.63743
H         99.48492       96.96408       69.02038
Ca       101.78755       95.47090       64.22243
O        100.28312       97.66439       61.42370
H         99.56628       98.31878       61.22803
H        100.29078       97.06279       60.63704
O         99.22434       97.57968       64.82665
H         98.32572       97.45747       65.22369
H         99.33554       98.56140       64.76177
O         98.23080       95.69363       62.21711
H         97.89424       94.76498       62.15297
H         97.41535       96.25234       62.27522

Ca 1.0



