%chk=apoCaM-CA-Ng.loop2.water4.frame705.chk
%nprocshared=20
%mem=10GB
%nosave
#b3lyp/svp scf=(tight,noincore,xqc) Test 
#IOP(5/87=12) Density=Current Pop=(MK,readradii) iop(6/33=2) iop(6/42=6)

apoCaM-CA-Ng.loop2.water4.frame705 

   -2  1 
C        110.72382       -1.96381      -16.09904
C        111.67753       -2.89882      -16.78296
O        112.41415       -2.47055      -17.66017
H        109.68114       -2.32434      -16.22510
H        110.96575       -1.92208      -15.01613
H        110.80158       -0.93913      -16.52126
N        111.70896       -4.21222      -16.42860
C        112.63872       -5.16864      -17.01306
C        113.97136       -5.07049      -16.30295
O        114.00955       -5.22340      -15.08920
C        112.07571       -6.59849      -16.90024
C        113.01724       -7.61262      -17.49454
O        113.34205       -7.54077      -18.66946
O        113.51411       -8.60060      -16.72631
H        111.05309       -4.53897      -15.70128
H        112.74964       -4.96455      -18.10235
H        111.10799       -6.65171      -17.44564
H        111.88895       -6.85144      -15.83409
N        115.11844       -4.85760      -17.00644
C        116.42434       -4.78677      -16.35973
C        116.50485       -3.56194      -15.45284
O        115.76579       -2.61586      -15.68848
C        117.53020       -4.75044      -17.42179
H        115.05950       -4.78245      -18.03374
H        116.54496       -5.71598      -15.76007
H        118.53875       -4.71919      -16.96501
H        117.46742       -5.66627      -18.04936
H        117.41000       -3.86210      -18.07696
N        117.31340       -3.49456      -14.35317
C        118.23091       -4.54211      -13.92294
C        117.58972       -5.41776      -12.86187
O        116.51368       -5.10235      -12.37237
C        119.53379       -3.91458      -13.38512
C        120.16896       -2.98491      -14.38122
O        120.54140       -3.40048      -15.46628
O        120.32944       -1.68236      -14.07565
H        117.24300       -2.65538      -13.76267
H        118.48055       -5.19991      -14.77633
H        120.26243       -4.70876      -13.11586
H        119.30007       -3.33537      -12.46344
N        118.19066       -6.58850      -12.51283
C        117.64307       -7.54137      -11.55845
C        117.20347       -8.80322      -12.27773
O        117.21911       -8.81558      -13.50143
H        119.06561       -6.85382      -12.99170
H        116.77775       -7.12528      -11.00362
H        118.44502       -7.77464      -10.82702
N        116.82099       -9.93916      -11.62340
C        116.82506      -10.10510      -10.17032
C        115.68517       -9.34983       -9.50096
O        114.83746       -8.80971      -10.19744
C        116.72772      -11.60816       -9.80281
C        115.35866      -12.20691      -10.05951
N        114.62792      -12.70189       -9.03241
O        114.90252      -12.23913      -11.19239
H        116.60193      -10.75608      -12.21372
H        117.80756       -9.74923       -9.79231
H        116.96910      -11.71962       -8.72499
H        117.49869      -12.18036      -10.36428
H        114.98938      -12.68250       -8.06746
H        113.69234      -13.10063       -9.19862
N        115.57581       -9.32689       -8.13938
C        114.43301       -8.75153       -7.44201
C        114.77939       -7.55583       -6.57619
O        113.86911       -7.01922       -5.96058
H        116.31206       -9.77223       -7.56975
H        113.98205       -9.54513       -6.80501
H        113.65175       -8.42517       -8.15850
N        116.05251       -7.08151       -6.45656
C        116.39602       -5.94286       -5.60638
C        115.88612       -4.62899       -6.20177
O        116.25333       -4.28515       -7.31292
C        117.92465       -5.89608       -5.36076
C        118.32589       -4.66678       -4.53813
O        118.31914       -7.03751       -4.63855
H        116.81305       -7.57065       -6.94901
H        115.94369       -6.10371       -4.60117
H        118.47790       -5.84314       -6.32670
H        118.34649       -7.80241       -5.26837
H        117.77942       -4.65071       -3.57054
H        119.41658       -4.68980       -4.33573
H        118.10338       -3.73134       -5.09350
N        115.05732       -3.83699       -5.46405
C        114.51062       -2.53107       -5.86225
C        115.61383       -1.46667       -5.95408
O        116.38174       -1.32378       -5.01352
C        113.44862       -2.08584       -4.80364
C        112.89221       -0.66525       -5.09890
C        112.28231       -3.10362       -4.74701
C        111.98750       -0.12882       -3.98934
H        114.79926       -4.19827       -4.53449
H        113.97966       -2.62333       -6.83584
H        113.96048       -2.06506       -3.81531
H        112.34127       -0.66673       -6.06452
H        113.72676        0.06039       -5.17984
H        111.61321       -2.89083       -3.89060
H        111.69142       -3.07019       -5.68762
H        112.62571       -4.14664       -4.60401
H        111.08131       -0.75139       -3.85733
H        112.55026       -0.08729       -3.03197
H        111.65526        0.89742       -4.25030
N        115.68306       -0.62950       -7.03488
C        116.65593        0.44750       -7.21384
C        116.01862        1.82751       -7.41901
O        116.78648        2.76902       -7.57211
C        117.46734        0.15904       -8.48956
C        118.25285       -1.10837       -8.41017
O        117.77846       -2.24139       -8.96460
O        119.36034       -1.10408       -7.89683
H        115.01236       -0.76234       -7.79130
H        117.33731        0.51251       -6.33689
H        118.17304        0.98699       -8.72785
H        116.76552        0.08841       -9.34700
N        114.66801        2.05134       -7.47076
C        114.10571        3.36155       -7.81470
C        113.09874        3.23033       -8.95879
O        111.95367        3.62578       -8.78831
C        113.57020        4.03863       -6.52781
C        112.92435        5.40466       -6.71344
C        113.51004        6.41079       -7.50996
C        111.71737        5.69063       -6.04675
C        112.88907        7.65913       -7.64628
C        111.11372        6.94631       -6.16941
C        111.69542        7.92781       -6.97304
H        114.00930        1.28261       -7.28366
H        114.90111        4.03735       -8.19089
H        114.45046        4.18119       -5.86369
H        112.86768        3.35628       -6.00150
H        114.43662        6.23783       -8.03846
H        111.25069        4.94861       -5.41154
H        113.33528        8.42284       -8.27100
H        110.19467        7.15940       -5.63815
H        111.22272        8.89749       -7.07060
N        113.45781        2.72047      -10.18490
C        112.57709        2.67466      -11.34988
C        111.28384        1.91080      -11.15075
O        110.39155        2.03899      -11.97769
C        113.40983        1.92839      -12.40178
C        114.81753        2.33452      -12.04065
C        114.78532        2.25025      -10.51895
H        112.36762        3.73029      -11.63449
H        113.35275        0.83058      -12.20449
H        113.10479        2.11013      -13.45426
H        115.62209        1.73308      -12.51509
H        114.94084        3.40185      -12.33158
H        114.87524        1.20116      -10.16288
H        115.60261        2.88363      -10.11747
N        111.14801        1.02701      -10.12544
C        109.94043        0.25706       -9.89679
C        108.88319        1.21429       -9.39798
O        107.83989        1.33838      -10.02415
C        110.14447       -0.91271       -8.89183
C        111.02381       -2.08216       -9.41775
C        112.51526       -1.88485       -9.35917
O        113.34554       -2.85349       -9.78918
O        112.99371       -0.89906       -8.84149
H        111.92671        0.92092       -9.47885
H        109.60835       -0.21430      -10.85007
H        109.13362       -1.35390       -8.74727
H        110.49663       -0.56642       -7.89584
H        110.71393       -2.33753      -10.45350
H        110.82891       -2.96936       -8.77772
N        109.11819        1.96694       -8.28745
C        108.17644        2.95161       -7.80704
H        107.22059        2.46131       -7.52954
H        108.59302        3.46619       -6.91471
H        107.99297        3.71201       -8.59642
H        110.01092        1.86083       -7.78128
Ca       115.57394       -2.61634       -9.40990
O        116.38878       -1.44038      -11.78689
H        116.01247       -0.93776      -12.55132
H        117.32772       -1.13430      -11.71561
O        113.56884       -3.84029      -12.45481
H        112.70730       -3.35222      -12.46844
H        114.15143       -3.33299      -13.07384
O        114.60253       -5.68510       -9.65977
H        114.36465       -6.26315      -10.42704
H        114.00879       -5.98712       -8.92778
O        118.43209       -4.86392       -9.68797
H        119.21592       -4.31198       -9.44104
H        118.65766       -5.76881       -9.35922

Ca 1.0



