%chk=apoCaM-CA-Ng.loop3.water3.frame850.chk
%nprocshared=20
%mem=10GB
%nosave
#b3lyp/svp scf=(tight,noincore,xqc) Test 
#IOP(5/87=12) Density=Current Pop=(MK,readradii) iop(6/33=2) iop(6/42=6)

apoCaM-CA-Ng.loop3.water3.frame850 

   0  1 
C         82.10624       67.38738       76.73247
C         82.81999       68.29169       75.77130
O         83.20802       67.83844       74.70417
H         81.19420       66.98384       76.24228
H         82.76853       66.54986       77.02767
H         81.78895       67.93476       77.64601
N         82.98011       69.60943       76.06403
C         83.51770       70.56509       75.10599
C         85.01825       70.38995       74.88315
O         85.71540       70.01095       75.81333
C         83.17370       71.99054       75.58273
C         83.18852       73.01737       74.50173
O         82.65890       74.21203       74.75850
O         83.45687       72.73826       73.34812
H         82.59721       69.95967       76.95694
H         82.96271       70.40175       74.16113
H         83.79300       72.30089       76.45011
H         82.10772       71.98126       75.90630
N         85.58935       70.74310       73.69237
C         87.02411       70.71406       73.41448
C         87.65458       72.10620       73.55159
O         88.87503       72.18136       73.59625
C         87.23252       70.07408       72.01371
C         88.65566       70.20318       71.44346
C         88.82457       69.53986       70.06720
C         88.79417       68.00682       70.14151
N         89.06801       67.41616       68.83193
H         84.98219       71.08769       72.94089
H         87.53959       70.09636       74.18233
H         86.56145       70.57208       71.28155
H         86.92084       69.01152       72.08460
H         89.40588       69.79407       72.15205
H         88.86022       71.28492       71.29025
H         89.81916       69.84106       69.67220
H         88.04914       69.91388       69.36101
H         87.80543       67.65189       70.50097
H         89.57398       67.66754       70.85909
H         89.07903       66.37470       68.92328
H         88.32493       67.69152       68.14964
H         90.00257       67.73130       68.48253
N         86.90795       73.24093       73.66106
C         87.46501       74.57312       73.88756
C         86.89389       75.17064       75.16949
O         87.66998       75.52803       76.04463
C         87.30290       75.47973       72.64020
C         86.00147       75.40249       71.87701
O         84.82587       75.71473       72.43895
O         86.02029       75.08466       70.69881
H         85.88909       73.16982       73.57943
H         88.56663       74.52731       74.04936
H         88.09214       75.16865       71.91970
H         87.52382       76.53163       72.92410
N         85.55202       75.26169       75.36947
C         84.93118       75.75753       76.58863
C         83.90746       76.85376       76.33997
O         83.29745       77.27368       77.31452
H         84.93589       74.90179       74.64374
H         85.68990       76.12764       77.31208
H         84.39949       74.90704       77.06797
N         83.65748       77.37263       75.09591
C         82.67119       78.42491       74.83980
C         81.66353       78.02788       73.76244
O         81.93569       77.11628       73.00335
C         83.37290       79.73801       74.40607
C         83.74862       79.79885       72.93013
N         84.65625       78.96606       72.36898
O         83.19082       80.62513       72.22263
H         84.19987       77.02313       74.30768
H         82.12619       78.62993       75.78732
H         84.25346       79.93865       75.05439
H         82.64606       80.56116       74.58018
H         85.17238       78.27331       72.91988
H         84.85240       79.02189       71.35792
N         80.53239       78.75905       73.56602
C         79.60691       78.58306       72.44737
C         78.92883       77.22751       72.38864
O         78.41614       76.78745       73.40709
H         80.33653       79.53159       74.22164
H         80.13037       78.79414       71.49048
H         78.80201       79.33983       72.56034
N         78.79450       76.56376       71.19175
C         78.09425       75.28174       71.03853
C         78.96335       74.12264       71.57152
O         79.12873       74.34555       72.91979
C         77.66987       75.02794       69.56771
C         76.59129       75.97544       69.08476
C         75.36884       76.07812       69.77930
C         76.76973       76.72791       67.91224
C         74.35680       76.92247       69.31873
C         75.74764       77.56404       67.44559
C         74.54076       77.66597       68.14669
O         73.56475       78.47287       67.68312
H         79.14143       77.02965       70.33956
H         77.16559       75.29902       71.64607
H         77.21661       74.01770       69.48673
H         78.56261       75.04430       68.90457
H         75.18665       75.50326       70.67731
H         77.69027       76.65485       67.34759
H         73.42670       76.98975       69.86999
H         75.89075       78.12871       66.53321
H         72.71403       78.56370       68.13665
N         78.33428       72.80668       71.35821
C         78.98907       71.60589       71.93705
C         80.40551       71.42366       71.41461
O         81.32336       72.02344       71.94688
C         78.93790       71.50948       73.50979
C         79.57751       70.21253       74.08242
C         77.50867       71.68736       74.05295
C         78.89084       68.90611       73.68554
H         77.32219       72.82904       71.61669
H         78.39124       70.75354       71.54901
H         79.55403       72.32072       73.94479
H         79.57373       70.27746       75.19368
H         80.63985       70.15320       73.77181
H         76.82399       70.92060       73.63575
H         77.50650       71.61407       75.16100
H         77.10899       72.69056       73.80270
H         79.42637       68.05901       74.16524
H         77.83966       68.88554       74.03780
H         78.92317       68.75765       72.58782
N         80.65569       70.56254       70.39155
C         82.00498       70.18145       69.97272
C         81.98106       69.38757       68.68276
O         82.78295       69.66979       67.80283
C         82.70482       69.34932       71.06642
O         81.98852       68.17358       71.34921
H         79.84107       70.15823       69.90976
H         82.61648       71.09030       69.79178
H         82.84079       69.96391       71.97896
H         83.72947       69.06797       70.73825
H         81.62146       68.25952       72.26719
N         81.07524       68.38608       68.49770
C         81.02933       67.54466       67.31130
C         80.94753       68.34053       66.00695
O         80.50845       69.48202       66.03563
C         79.80638       66.62231       67.41017
H         80.39506       68.19399       69.24779
H         81.95706       66.94538       67.32253
H         78.87874       67.23463       67.46180
H         79.71790       65.95978       66.53818
H         79.86944       65.99238       68.32129
N         81.33221       67.81175       64.80191
C         81.97454       66.50835       64.65557
C         81.81481       65.95151       63.24535
O         82.29374       66.58983       62.31832
C         83.47769       66.62352       64.96074
H         81.22465       68.39923       63.95964
H         81.54680       65.80995       65.38158
H         83.67022       67.01362       65.97846
H         83.95416       65.62215       64.88323
H         83.97318       67.31066       64.24195
N         81.21953       64.74716       62.97111
C         80.55744       63.89502       63.95859
C         79.21637       64.46764       64.41390
O         78.63666       63.90769       65.33490
C         80.35840       62.42892       63.48216
C         79.47611       62.19986       62.23878
C         80.20602       62.45041       60.95084
O         81.32097       61.74835       60.66590
O         79.78827       63.27081       60.15024
H         81.27027       64.43068       61.99692
H         81.22802       63.79361       64.83817
H         79.86918       61.89446       64.32736
H         81.34210       61.93272       63.33505
H         78.54265       62.79926       62.30990
H         79.18905       61.12720       62.21631
N         78.64105       65.55286       63.81917
C         77.35864       66.06736       64.25326
H         76.58064       65.27941       64.15786
H         77.41798       66.39983       65.31115
H         77.06247       66.93341       63.62420
H         79.09995       66.02392       63.02788
Ca        81.30735       74.62996       73.09339
O         82.39882       76.79114       70.19394
H         81.55948       76.90420       69.68157
H         83.08108       77.27648       69.66606
O         82.19283       73.83421       69.32336
H         82.84750       73.86145       68.58073
H         81.34997       73.53111       68.90169
O         84.63060       72.54032       70.55505
H         85.41889       72.64517       71.14234
H         84.95735       71.98812       69.80173

Ca 1.0



