%chk=apoCaM-CA-Ng.loop1.water1.frame812.chk
%nprocshared=20
%mem=10GB
%nosave
#b3lyp/svp scf=(tight,noincore,xqc) Test 
#IOP(5/87=12) Density=Current Pop=(MK,readradii) iop(6/33=2) iop(6/42=6)

apoCaM-CA-Ng.loop1.water1.frame812 

   0  1 
C        102.40506       77.50335       46.37805
C        103.06796       78.81068       46.06176
O        104.13905       79.08454       46.58424
H        101.41362       77.42639       45.88069
H        103.04121       76.66522       46.03378
H        102.23936       77.43011       47.47345
N        102.46221       79.68172       45.21284
C        102.97325       81.01790       44.91554
C        103.12905       81.83855       46.18864
O        102.50059       81.50683       47.18025
C        102.08314       81.71014       43.85597
C        100.59970       81.71213       44.17015
O        100.11279       81.08625       45.26700
O         99.82594       82.25270       43.39529
H        101.58867       79.36718       44.76955
H        103.99247       80.90954       44.48821
H        102.21075       81.16520       42.89706
H        102.43661       82.75464       43.70749
N        104.06881       82.83235       46.26688
C        104.51355       83.40875       47.53948
C        103.71734       84.66830       47.86924
O        104.29096       85.72998       48.07029
C        106.06467       83.57459       47.48952
C        106.71979       83.81215       48.86069
C        108.26134       83.70300       48.82035
C        108.82063       83.94142       50.23499
N        110.28082       83.86371       50.28955
H        104.64163       83.01256       45.42828
H        104.31323       82.67090       48.34886
H        106.34991       84.37712       46.77218
H        106.47574       82.61483       47.10850
H        106.35575       83.03209       49.56320
H        106.42643       84.81061       49.24629
H        108.68483       84.45120       48.11474
H        108.56136       82.68754       48.47147
H        108.39464       83.18354       50.92998
H        108.50299       84.95081       50.57445
H        110.71050       84.55784       49.63659
H        110.58587       84.09170       51.26475
H        110.60735       82.89810       50.05648
N        102.35394       84.60049       47.91524
C        101.46662       85.72591       48.18408
C        100.31645       85.27907       49.10583
O        100.14472       84.08098       49.28801
C        101.06001       86.35672       46.82060
C        100.42372       85.44742       45.80926
O         99.92617       84.25582       46.15198
O        100.35469       85.80262       44.64306
H        101.90671       83.71001       47.68211
H        102.03928       86.50048       48.72896
H        102.00782       86.71004       46.36486
H        100.40530       87.23700       46.90939
N         99.48729       86.14254       49.76576
C         99.56581       87.58993       49.70574
C        100.79536       88.16314       50.36098
O        101.50631       87.45657       51.06575
H         98.73444       85.73887       50.34736
H         98.69486       88.02926       50.23811
H         99.49953       87.91979       48.66242
N        101.05945       89.49281       50.20215
C        102.14561       90.17723       50.88660
C        101.54951       91.07897       51.94656
O        100.35840       91.36160       51.90267
C        103.04088       90.97988       49.91549
C        103.53545       90.15329       48.76048
O        102.80035       89.92879       47.81112
O        104.80729       89.71313       48.73372
H        100.42324       90.05434       49.61659
H        102.78131       89.42841       51.40964
H        103.91248       91.36670       50.48722
H        102.50333       91.86169       49.50030
N        102.31294       91.52100       52.98049
C        101.76730       92.29633       54.08194
C        100.90193       91.48478       55.04115
O        100.45273       92.06734       56.01770
H        103.31756       91.28914       52.99926
H        101.20861       93.17122       53.68074
H        102.61365       92.68491       54.68557
N        100.62788       90.15659       54.85365
C         99.85223       89.34643       55.79653
C         98.45663       89.07347       55.26310
O         98.14293       89.44586       54.14062
C        100.60909       88.02505       56.17538
C        101.09235       87.21598       54.96134
O        101.69811       88.25566       57.03788
H        100.95745       89.69391       53.99949
H         99.66915       89.91534       56.73478
H         99.90220       87.38362       56.74142
H        102.03869       89.17550       56.90050
H        101.91518       87.74530       54.43538
H        101.49935       86.23839       55.29646
H        100.26250       87.02845       54.24814
N         97.53875       88.48245       56.08524
C         96.13167       88.28751       55.74241
C         95.21926       89.10549       56.64353
O         94.04286       89.20783       56.31963
C         95.75543       86.78197       55.75950
C         95.96470       86.15084       57.16717
C         96.51803       86.07218       54.63133
C         95.46014       84.71163       57.28153
H         97.85123       88.19450       57.02217
H         95.94149       88.68301       54.72009
H         94.67138       86.69186       55.52189
H         95.36831       86.74967       57.88713
H         97.02563       86.17718       57.49759
H         96.27657       84.99254       54.59134
H         96.20887       86.52008       53.65933
H         97.61502       86.20277       54.73795
H         95.37776       84.43894       58.35668
H         94.45336       84.61095       56.82487
H         96.16291       84.00226       56.79776
N         95.67256       89.71965       57.77780
C         94.86036       90.64924       58.54360
C         94.27230       90.03963       59.80183
O         94.70979       89.01052       60.29602
C         95.62440       91.96868       58.84847
C         96.99906       91.73387       59.50170
O         95.79769       92.69439       57.66023
H         96.62314       89.53863       58.11278
H         93.96437       90.91901       57.94080
H         94.98952       92.56384       59.54579
H         96.05916       93.61594       57.92384
H         97.71822       91.32651       58.75780
H         97.41857       92.69664       59.85981
H         96.92715       91.03381       60.35973
N         93.18359       90.67191       60.31394
C         92.38627       90.28564       61.46786
C         90.93373       90.03593       61.04829
O         90.29459       89.16123       61.61673
C         92.48941       91.43783       62.49283
C         91.70026       91.17726       63.77623
O         92.04437       92.63837       61.91151
H         92.90284       91.53189       59.82633
H         92.78414       89.35854       61.94062
H         93.57241       91.51997       62.75054
H         92.47618       93.38110       62.40673
H         91.99875       90.20943       64.22915
H         91.91020       91.99112       64.50273
H         90.60939       91.16978       63.56831
N         90.33401       90.82268       60.10802
C         88.94887       90.71843       59.68336
C         88.86248       90.82169       58.17317
O         89.46755       91.71233       57.58932
C         88.11970       91.84156       60.33951
C         88.63559       93.25565       60.03225
C         87.84577       94.32641       60.77534
C         88.44091       95.70610       60.46465
N         87.85014       96.73591       61.31315
H         90.86575       91.58713       59.68176
H         88.48700       89.76597       60.02790
H         88.14858       91.67969       61.43962
H         87.06107       91.75201       60.00789
H         88.57362       93.46658       58.94626
H         89.69224       93.33354       60.36276
H         87.91812       94.12483       61.86551
H         86.77449       94.30043       60.47357
H         88.26980       95.94842       59.39102
H         89.53928       95.69113       60.64570
H         86.81163       96.75484       61.19849
H         88.09528       96.54326       62.31214
H         88.24820       97.66443       61.04453
N         88.04542       89.99257       57.47912
C         87.80292       90.16596       56.05679
C         89.08308       89.97083       55.24224
O         89.45792       90.91149       54.55609
C         86.58998       89.31469       55.63366
C         86.14321       89.60483       54.19821
C         84.83279       88.93131       53.90540
O         83.74909       89.20967       54.65743
O         84.73564       88.14741       52.97583
H         87.51171       89.27827       57.99767
H         87.46756       91.21979       55.90363
H         85.75655       89.60991       56.31170
H         86.75683       88.23257       55.78308
H         86.92568       89.26706       53.48450
H         85.99382       90.69861       54.07514
N         89.85616       88.84639       55.26691
C         89.57392       87.66126       56.04386
H         88.63536       87.19220       55.70154
H         90.38487       86.91763       55.89192
H         89.52771       87.90026       57.12578
H         90.72264       88.84160       54.70521
Ca        99.14275       82.30667       46.84055
O        100.45044       80.85794       49.35628
H        101.39377       81.13576       49.26160
H        100.50400       80.00641       49.85644

Ca 1.0



