%chk=apoCaM-CA-Ng.loop4.water5.frame882.chk
%nprocshared=20
%mem=10GB
%nosave
#b3lyp/svp scf=(tight,noincore,xqc) Test 
#IOP(5/87=12) Density=Current Pop=(MK,readradii) iop(6/33=2) iop(6/42=6)

apoCaM-CA-Ng.loop4.water5.frame882 

   -3  1 
C        124.80022        7.37540        1.74434
C        125.90276        8.04420        0.97809
O        126.11324        7.69406       -0.17398
H        123.83798        7.54294        1.21753
H        124.97696        6.28698        1.80763
H        124.71666        7.78351        2.77326
N        126.61884        9.05958        1.54376
C        127.63057        9.84067        0.84167
C        127.00009       10.44477       -0.40409
O        127.49335       10.23047       -1.49158
C        128.88391        8.97403        0.54899
C        130.05313        9.75236       -0.00505
O        129.98237       11.08486       -0.19770
O        131.09034        9.16649       -0.27070
H        126.39325        9.34493        2.50886
H        127.94643       10.66708        1.51745
H        128.62642        8.16150       -0.16364
H        129.22165        8.50588        1.49839
N        125.83723       11.14092       -0.30755
C        125.08003       11.65067       -1.45509
C        125.79093       12.85948       -2.06244
O        126.14934       13.74368       -1.29706
C        123.63406       12.02165       -0.98108
C        122.87371       10.79593       -0.38244
C        122.78484       12.67053       -2.09094
C        122.69973        9.60192       -1.33304
H        125.43969       11.25053        0.63744
H        124.97317       10.85400       -2.21447
H        123.72045       12.78375       -0.17400
H        121.86636       11.12916       -0.05136
H        123.39501       10.42134        0.52201
H        123.26666       13.59640       -2.46793
H        122.62074       11.98335       -2.94238
H        121.79193       12.95944       -1.68513
H        123.67890        9.16637       -1.61929
H        122.12663        8.80319       -0.81743
H        122.14079        9.88539       -2.24701
N        125.98005       13.04884       -3.41065
C        125.47912       12.17189       -4.47582
C        126.35095       10.94039       -4.71413
O        125.92770       10.05089       -5.43905
C        125.24028       12.97593       -5.77437
C        126.49353       13.57006       -6.35800
O        126.61043       14.90669       -6.47807
O        127.39945       12.84936       -6.74395
H        126.39904       13.95023       -3.68951
H        124.47275       11.82021       -4.18144
H        124.52914       13.80099       -5.54197
H        124.75909       12.32759       -6.53781
N        127.55980       10.80616       -4.10681
C        128.36156        9.59339       -4.12574
C        129.04513        9.29738       -5.43089
O        129.73457       10.16435       -5.94828
H        127.90561       11.57240       -3.51239
H        127.75828        8.73136       -3.76372
H        129.19150        9.73399       -3.40039
N        129.01685        8.02987       -5.93537
C        129.86732        7.58568       -7.03504
C        129.08226        7.06064       -8.23064
O        129.71762        6.66796       -9.19996
C        130.91098        6.57617       -6.48292
C        130.34385        5.38183       -5.75699
O        130.61384        5.20249       -4.44923
O        129.67421        4.55218       -6.34320
H        128.44698        7.31705       -5.45285
H        130.46211        8.43583       -7.43446
H        131.54422        7.12723       -5.75283
H        131.57868        6.22630       -7.29940
N        127.71526        7.06903       -8.27798
C        126.95965        6.65164       -9.45668
C        127.04242        5.16508       -9.77031
O        126.44234        4.74417      -10.74768
H        127.17789        7.43935       -7.48119
H        127.30741        7.24095      -10.33275
H        125.88603        6.88822       -9.29251
N        127.73811        4.30954       -8.97362
C        127.83866        2.86605       -9.13511
C        126.49048        2.19032       -8.93667
O        126.19630        1.21078       -9.60807
C        128.55683        2.45462      -10.44244
C        129.93908        3.12069      -10.57712
C        130.72939        2.62273      -11.76538
N        131.96177        3.12531      -12.00951
O        130.27354        1.76202      -12.50494
H        128.21183        4.68602       -8.15248
H        128.46861        2.50196       -8.29227
H        127.93908        2.71643      -11.32895
H        128.69167        1.35059      -10.42460
H        130.53581        2.91575       -9.66285
H        129.80606        4.21971      -10.67713
H        132.36357        3.85173      -11.39871
H        132.51732        2.78734      -12.80960
N        125.61834        2.67640       -8.00567
C        124.33311        2.05944       -7.68801
C        124.12343        1.91337       -6.17854
O        123.05674        1.44673       -5.79890
C        123.16455        2.90043       -8.28622
C        123.10514        4.33388       -7.72905
C        123.23159        2.93912       -9.81793
H        125.85851        3.55745       -7.52904
H        124.26888        1.04309       -8.13676
H        122.20885        2.39359       -8.02240
H        123.00359        4.32460       -6.62622
H        124.01414        4.91006       -7.99945
H        122.21982        4.86353       -8.13984
H        123.22343        1.90702      -10.22841
H        122.34808        3.47728      -10.22327
H        124.14874        3.45768      -10.16355
N        125.04345        2.32715       -5.25232
C        124.70419        2.45240       -3.83323
C        125.95649        2.59218       -2.95804
O        127.06621        2.63538       -3.47224
C        123.78539        3.70893       -3.71050
C        123.20403        3.97984       -2.34778
N        123.50205        5.12202       -1.68180
O        122.45185        3.16108       -1.84068
H        125.95999        2.67118       -5.56563
H        124.17734        1.53106       -3.49945
H        122.91754        3.60775       -4.39294
H        124.37302        4.59144       -4.04947
H        124.13677        5.82477       -2.08893
H        123.10375        5.30359       -0.74861
N        125.83207        2.69490       -1.60490
C        126.93105        2.97782       -0.69524
C        126.85568        2.06343        0.51006
O        125.77221        1.91714        1.06273
C        126.77515        4.43007       -0.20874
C        127.92182        4.85538        0.67806
C        127.70409        5.14946        2.03295
C        129.22133        4.96406        0.15441
C        128.76273        5.54725        2.85028
C        130.28063        5.36539        0.97313
C        130.05585        5.65896        2.32211
O        131.08612        6.04706        3.09941
H        124.89465        2.65295       -1.18819
H        127.91515        2.89491       -1.20548
H        125.80504        4.52179        0.32818
H        126.73607        5.11888       -1.08067
H        126.71889        5.06366        2.46428
H        129.41379        4.74543       -0.88867
H        128.57489        5.76771        3.89327
H        131.27660        5.44998        0.55741
H        130.96917        6.26244        4.03573
N        127.98183        1.51674        1.05014
C        127.95226        0.75690        2.29278
C        128.66342        1.54253        3.39056
O        129.88567        1.58512        3.36196
C        128.60843       -0.62447        2.10527
C        127.78166       -1.53834        1.19412
C        128.51691       -2.81944        0.92153
O        128.78566       -3.13695       -0.22612
O        128.88878       -3.62185        1.93759
H        128.89514        1.70978        0.61121
H        126.91511        0.57134        2.58845
H        128.71072       -1.12761        3.09325
H        129.62698       -0.47943        1.68012
H        127.56985       -1.02741        0.23065
H        126.81397       -1.77001        1.69168
N        128.01320        2.22553        4.38859
C        126.56826        2.45932        4.45682
C        125.72474        1.20573        4.57537
O        126.21597        0.16194        4.98386
C        126.19099        3.42796        5.60569
C        126.51741        2.86722        7.00641
C        125.98700        3.76305        8.08608
O        126.82005        4.31881        8.98434
O        124.78667        3.96880        8.17377
H        128.60848        2.70900        5.07858
H        126.29016        2.95412        3.50245
H        125.09820        3.62816        5.54193
H        126.71719        4.39837        5.46878
H        127.61566        2.75358        7.12517
H        126.04809        1.87114        7.14669
N        124.42514        1.25104        4.16930
C        123.55565        0.09848        4.19661
H        122.56318        0.36930        3.77501
H        123.98823       -0.71749        3.57946
H        123.41905       -0.24728        5.24156
H        124.04384        2.13453        3.79564
Ca       125.91862        5.58882       10.61923
O        125.55734        5.16927       13.63013
H        124.67212        5.03253       14.05172
H        126.18647        4.66267       14.20246
O        128.77258        6.20359       11.40400
H        128.54600        7.08745       11.78821
H        129.02778        6.39644       10.46700
O        125.95062        8.51785       11.39096
H        125.68978        8.44695       12.34350
H        125.10676        8.72639       10.91675
O        122.88122        5.48467       11.72991
H        122.98085        6.05447       10.92625
H        122.66083        6.11891       12.45770
O        127.59613        3.16312       11.94344
H        128.12448        3.75194       12.53872
H        127.17250        2.50981       12.55487

Ca 1.0



