%chk=apoCaM-CA-Ng.loop2.water4.frame809.chk
%nprocshared=20
%mem=10GB
%nosave
#b3lyp/svp scf=(tight,noincore,xqc) Test 
#IOP(5/87=12) Density=Current Pop=(MK,readradii) iop(6/33=2) iop(6/42=6)

apoCaM-CA-Ng.loop2.water4.frame809 

   -2  1 
C          8.13489       93.54960       77.48868
C          8.17758       95.03437       77.67292
O          9.18869       95.54537       78.13449
H          9.08687       93.08767       77.82932
H          7.30034       93.12494       78.08453
H          7.98407       93.31222       76.41574
N          7.09503       95.79901       77.35166
C          7.09007       97.24307       77.54164
C          8.09891       97.86888       76.59268
O          7.86680       97.86403       75.39065
C          5.66547       97.80541       77.33183
C          5.54683       99.25857       77.70016
O          4.71609       99.63064       78.69361
O          6.18156      100.10816       77.09653
H          6.24643       95.32846       76.99946
H          7.36944       97.43770       78.60168
H          4.96941       97.23348       77.98475
H          5.33875       97.65725       76.27908
N          9.27767       98.36834       77.06693
C         10.31436       98.93361       76.20183
C         10.78421       97.92825       75.14866
O         10.49855       96.74763       75.29689
C         11.50811       99.37343       77.06734
H          9.44572       98.32916       78.08420
H          9.86191       99.80863       75.68618
H         11.91986       98.49452       77.60950
H         12.33583       99.81406       76.48066
H         11.17583      100.12601       77.81259
N         11.44385       98.29369       74.00639
C         11.78216       99.66620       73.62768
C         10.78780      100.25304       72.64362
O         10.90861      101.43205       72.33731
C         13.23378       99.75577       73.10047
C         13.49535       99.00176       71.81789
O         12.52449       98.29688       71.20632
O         14.61111       99.02990       71.32490
H         11.63370       97.54319       73.32562
H         11.71427      100.33142       74.50310
H         13.92414       99.37312       73.88273
H         13.48162      100.82380       72.91710
N          9.76493       99.51817       72.12091
C          8.76654      100.09699       71.24155
C          7.86027      101.05501       71.98172
O          7.98968      101.18426       73.19186
H          9.68063       98.51604       72.33773
H          8.13740       99.27661       70.84152
H          9.26555      100.61596       70.39874
N          6.88947      101.77259       71.34975
C          6.65180      101.78214       69.90658
C          6.29460      100.39756       69.39461
O          5.33208       99.82374       69.88806
C          5.49370      102.76181       69.60006
C          5.22398      102.91120       68.12561
N          6.16133      103.43419       67.30237
O          4.14045      102.57277       67.67334
H          6.30357      102.38211       71.94401
H          7.56994      102.15201       69.40058
H          5.73303      103.76774       70.00878
H          4.57331      102.40014       70.11290
H          7.07301      103.74256       67.66996
H          5.96934      103.54501       66.29607
N          7.01064       99.79869       68.39348
C          6.62595       98.48385       67.90734
C          7.44690       97.97819       66.74077
O          6.86487       97.75017       65.68915
H          7.81047      100.29200       67.96714
H          5.56360       98.53567       67.57982
H          6.69956       97.74725       68.73513
N          8.78177       97.71422       66.85920
C          9.55546       97.07346       65.79091
C         10.14174       95.74638       66.26925
O         10.06456       95.42572       67.44680
C         10.66691       98.01471       65.25529
C         10.08638       99.27255       64.60788
O         11.53388       98.40251       66.28493
H          9.25323       97.92973       67.74993
H          8.89377       96.82370       64.93303
H         11.24508       97.50138       64.45079
H         12.17838       97.66323       66.41010
H          9.42343       98.99705       63.76022
H          9.50926       99.86809       65.34576
H         10.91154       99.90428       64.21256
N         10.73552       94.91580       65.36639
C         11.37587       93.63949       65.68099
C         12.82614       93.76717       65.27024
O         13.08508       94.03715       64.10451
C         10.63497       92.49061       64.93096
C         11.42482       91.15585       64.84060
C          9.24711       92.26811       65.55998
C         11.79655       90.51225       66.17477
H         10.74505       95.21045       64.37714
H         11.34105       93.42401       66.77160
H         10.48513       92.80807       63.87447
H         12.36231       91.33039       64.26999
H         10.82531       90.42532       64.25340
H          8.68913       91.48413       65.00590
H          9.33976       91.95364       66.62174
H          8.64844       93.20232       65.53303
H         12.37206       89.58256       65.97574
H         12.43290       91.19255       66.77020
H         10.89434       90.24091       66.75762
N         13.82548       93.63094       66.19334
C         15.22269       93.91455       65.88370
C         16.12163       92.69933       66.05304
O         17.26693       92.78147       65.62962
C         15.74942       95.04530       66.78982
C         14.81049       96.20888       66.94278
O         15.17953       97.34753       66.70389
O         13.60365       95.99439       67.50074
H         13.57989       93.38986       67.16493
H         15.30357       94.24518       64.82528
H         16.74401       95.38601       66.42650
H         15.87853       94.64080       67.81663
N         15.71108       91.55775       66.68831
C         16.56454       90.37925       66.79982
C         15.93579       89.32575       67.71953
O         14.83216       88.88546       67.42588
C         16.75366       89.75658       65.39778
C         17.60920       88.51707       65.44620
C         17.03848       87.26069       65.18478
C         18.97503       88.60189       65.76263
C         17.82043       86.10570       65.24731
C         19.75627       87.44364       65.81671
C         19.17867       86.19648       65.56158
H         14.77796       91.52201       67.11883
H         17.54951       90.69333       67.20067
H         17.21025       90.47273       64.68382
H         15.74269       89.50797       65.00463
H         15.98549       87.17383       64.94646
H         19.43303       89.56238       65.96502
H         17.37101       85.14064       65.05372
H         20.80878       87.51244       66.05844
H         19.78254       85.30007       65.60767
N         16.58820       88.82249       68.81754
C         16.09029       87.70971       69.61749
C         15.00400       88.10620       70.60899
O         14.63573       87.26156       71.41443
C         17.35826       87.20490       70.31804
C         18.10822       88.48991       70.57617
C         17.91419       89.22522       69.25275
H         15.71010       86.87517       68.98715
H         17.19052       86.55061       71.20051
H         17.95810       86.62806       69.57534
H         17.55968       89.03683       71.37602
H         19.16871       88.37222       70.88561
H         18.00832       90.31823       69.42823
H         18.65149       88.88550       68.49498
N         14.42078       89.34169       70.60761
C         13.38507       89.72928       71.56535
C         12.13817       88.84618       71.52484
O         11.31678       88.98287       72.42134
C         12.98693       91.21178       71.36356
C         12.28296       91.46408       70.01290
C         11.97732       92.91914       69.81638
O         10.70239       93.32983       69.67987
O         12.88355       93.73409       69.75441
H         14.74368       90.04400       69.93047
H         13.83496       89.62617       72.57839
H         13.90890       91.83000       71.42897
H         12.30652       91.52838       72.18519
H         11.33281       90.88845       69.97832
H         12.91894       91.13123       69.16811
N         11.91325       87.94140       70.52628
C         10.75176       87.07539       70.48226
H         10.17077       87.28437       69.56022
H         11.08687       86.01693       70.46410
H         10.08357       87.21117       71.35847
H         12.57673       87.85481       69.74476
Ca        12.97318       97.10048       69.35313
O          9.32102       96.52560       70.39881
H          8.96618       96.41697       71.31670
H          8.54714       96.33352       69.81225
O         10.99380       99.61968       68.67456
H         11.00468       99.34021       69.62077
H         11.88440      100.02331       68.52607
O         13.02179       94.89950       72.49102
H         13.70265       94.20406       72.30913
H         13.54158       95.66814       72.83556
O         15.45523       95.61388       70.34647
H         15.33484       96.57067       70.56710
H         16.01590       95.26164       71.08155

Ca 1.0



