%chk=apoCaM-CA-Ng.loop1.water3.frame448.chk
%nprocshared=20
%mem=10GB
%nosave
#b3lyp/svp scf=(tight,noincore,xqc) Test 
#IOP(5/87=12) Density=Current Pop=(MK,readradii) iop(6/33=2) iop(6/42=6)

apoCaM-CA-Ng.loop1.water3.frame448 

   0  1 
C         98.33364       75.07023       90.27944
C         98.74407       76.06902       89.23878
O         98.74115       75.72706       88.06489
H         97.29787       74.72749       90.07425
H         99.01990       74.19849       90.24661
H         98.36536       75.50863       91.29906
N         99.11728       77.32916       89.59852
C         99.52410       78.34745       88.63855
C        100.97722       78.72362       88.87104
O        101.27993       79.89548       89.02241
C         98.54424       79.54831       88.72031
C         98.37118       80.11127       90.11498
O         99.31559       80.57856       90.72871
O         97.15587       80.09670       90.69523
H         99.12115       77.57737       90.60005
H         99.47718       77.95114       87.60576
H         97.54587       79.20168       88.37591
H         98.87581       80.35124       88.03125
N        101.93828       77.75682       88.96107
C        103.31580       78.06117       89.34288
C        104.32133       77.28042       88.49639
O        104.17464       76.06763       88.43862
C        103.51567       77.73146       90.83836
C        102.51692       78.51127       91.71617
C        102.80137       78.34900       93.21175
C        101.70828       78.98445       94.09383
N        101.54938       80.42296       93.86532
H        101.65134       76.76815       88.89846
H        103.49066       79.13946       89.26626
H        104.55036       78.02296       91.12181
H        103.39286       76.64195       91.02365
H        101.49003       78.14341       91.50556
H        102.57771       79.59037       91.46055
H        103.78993       78.80070       93.44775
H        102.84214       77.26638       93.45922
H        101.98246       78.81524       95.15844
H        100.73726       78.47390       93.90700
H        102.45845       80.91861       94.00879
H        101.18621       80.60821       92.90337
H        100.84824       80.79611       94.54570
N        105.41233       77.82783       87.86126
C        105.81748       79.23312       87.83849
C        105.97203       79.78785       89.25213
O        105.23622       80.69095       89.61767
C        104.86087       80.06304       86.94170
C        104.94140       79.71004       85.48238
O        104.23633       80.30482       84.68312
O        105.81443       78.78877       85.03432
H        106.04472       77.17305       87.37442
H        106.81941       79.32241       87.36311
H        105.14945       81.12938       86.99636
H        103.80981       79.95609       87.27022
N        106.89054       79.32522       90.14412
C        107.90972       78.31834       89.86240
C        108.68656       77.94572       91.12133
O        108.35451       78.42971       92.19485
H        106.85452       79.75808       91.07938
H        108.60152       78.71334       89.08851
H        107.42836       77.39186       89.48831
N        109.70944       77.04670       91.12669
C        110.29376       76.40063       89.95865
C        111.24366       77.35659       89.25878
O        112.11367       77.91206       89.91761
C        111.09783       75.16115       90.42820
C        111.69952       74.33265       89.31810
O        112.41701       73.23822       89.63301
O        111.54277       74.62432       88.14306
H        110.10023       76.80130       92.05138
H        109.49295       76.02056       89.28634
H        110.41623       74.49585       91.00105
H        111.91666       75.48457       91.10818
N        111.20218       77.51932       87.90776
C        112.19090       78.30491       87.19088
C        112.03329       79.76704       87.47912
O        112.95618       80.38500       87.99179
H        110.49874       77.00447       87.35782
H        112.05846       78.16400       86.09701
H        113.21221       77.94940       87.45649
N        110.87332       80.38899       87.13656
C        110.63473       81.80804       87.32866
C        109.44581       81.98036       88.25087
O        108.36111       81.51133       87.93499
C        110.38929       82.49675       85.96758
C        111.60002       82.34022       85.03718
O        110.15063       83.86415       86.18010
H        110.12476       79.82886       86.69915
H        111.52356       82.29821       87.78573
H        109.49786       82.02668       85.48925
H        109.72060       84.21214       85.35567
H        111.80615       81.26877       84.83210
H        111.39812       82.84261       84.06757
H        112.50236       82.80089       85.49393
N        109.59073       82.65967       89.42148
C        108.51010       82.88775       90.38254
C        107.38082       83.79459       89.85612
O        106.46989       84.07267       90.62167
C        109.09239       83.39092       91.75294
C        109.92169       84.70795       91.72636
C        109.96694       82.28241       92.37782
C        109.16096       85.94284       91.25620
H        110.53522       82.99699       89.64989
H        108.03138       81.91021       90.60905
H        108.23894       83.53865       92.45134
H        110.83800       84.59984       91.11015
H        110.25638       84.91769       92.76680
H        110.86400       82.07089       91.75795
H        110.31291       82.58252       93.39017
H        109.38683       81.34124       92.48676
H        108.25106       86.09394       91.87410
H        109.81490       86.83421       91.36294
H        108.89085       85.86252       90.18664
N        107.35853       84.28522       88.57921
C        106.35124       85.21737       88.05605
C        104.89483       84.75170       88.12378
O        104.02777       85.58705       87.90735
C        106.66857       85.56577       86.57310
C        106.56621       84.32570       85.65238
O        107.95724       86.11575       86.48951
H        108.13276       84.04669       87.95463
H        106.42212       86.13854       88.67581
H        105.93005       86.32633       86.22897
H        108.04903       86.49386       85.57591
H        107.28342       83.53143       85.94430
H        105.54826       83.88741       85.67990
H        106.77971       84.60969       84.60154
N        104.54673       83.45227       88.34195
C        103.16971       82.93736       88.34884
C        102.47459       83.10593       86.99134
O        102.95942       83.82594       86.13148
C        102.35196       83.55801       89.52481
C        102.96613       83.20498       90.88882
O        101.00540       83.16125       89.49946
H        105.30494       82.77824       88.48505
H        103.22291       81.84344       88.51919
H        102.34973       84.66241       89.43196
H        100.96600       82.21006       89.76374
H        102.36679       83.66453       91.70271
H        102.97429       82.10294       91.03632
H        104.00377       83.57983       90.96397
N        101.31652       82.42716       86.73806
C        100.49653       82.59499       85.54078
C        100.37496       81.30615       84.72552
O         99.73308       81.35490       83.68408
C         99.09167       83.04469       86.00503
C         99.12488       84.39735       86.73976
C         97.82862       84.63038       87.52917
C         97.76719       86.00929       88.21173
N         98.89478       86.25208       89.11596
H        100.95985       81.78117       87.45272
H        100.92985       83.36775       84.86816
H         98.70861       82.26094       86.69320
H         98.38030       83.12265       85.15347
H         99.30192       85.20830       86.00033
H         99.95325       84.40392       87.47267
H         97.74472       83.83875       88.30810
H         96.95261       84.54259       86.85124
H         96.81926       86.05881       88.79306
H         97.73774       86.80749       87.43875
H         98.97980       85.48034       89.81629
H         99.78420       86.34743       88.57535
H         98.73439       87.15323       89.62139
N        100.94498       80.12337       85.11142
C        100.81699       78.88844       84.33478
C         99.35676       78.49406       84.18427
O         98.67531       78.31165       85.18356
C        101.60352       77.73208       85.01092
C        101.44467       76.37166       84.29533
C        101.95752       76.39347       82.88282
O        101.18351       76.26104       81.94836
O        103.27539       76.51225       82.63768
H        101.48951       80.08834       85.98475
H        101.26333       79.05285       83.32885
H        101.23607       77.60427       86.05019
H        102.67823       78.00226       85.06642
H        100.36959       76.09073       84.29608
H        101.98608       75.58183       84.85782
N         98.82639       78.29479       82.94605
C         97.46777       77.83762       82.75359
H         96.75208       78.57417       83.17359
H         97.26158       77.71047       81.66922
H         97.32759       76.85414       83.25268
H         99.41267       78.43846       82.10994
Ca       104.77334       76.31501       84.31488
O        108.14173       77.82157       82.42161
H        108.81075       77.25648       81.95931
H        108.67997       78.49085       82.91458
O        105.36744       76.49828       80.38466
H        104.52394       76.85799       80.01054
H        106.06194       76.76344       79.73081
O        105.20916       79.15253       81.91290
H        105.65195       79.97312       82.24603
H        104.24745       79.38533       81.87452

Ca 1.0



