%chk=apoCaM-CA-Ng.loop2.water3.frame762.chk
%nprocshared=20
%mem=10GB
%nosave
#b3lyp/svp scf=(tight,noincore,xqc) Test 
#IOP(5/87=12) Density=Current Pop=(MK,readradii) iop(6/33=2) iop(6/42=6)

apoCaM-CA-Ng.loop2.water3.frame762 

   -2  1 
C         71.15370       19.16330       -6.67104
C         72.09665       18.65958       -7.72362
O         71.81291       17.65079       -8.35319
H         70.25503       18.51479       -6.59922
H         71.66714       19.17736       -5.68685
H         70.82935       20.19506       -6.92517
N         73.24608       19.34176       -7.97536
C         74.21751       18.96073       -8.98935
C         74.21733       20.04971      -10.04253
O         75.15134       20.83562      -10.12995
C         75.59085       18.73268       -8.32029
C         76.65586       18.23236       -9.26777
O         76.41946       18.04463      -10.45176
O         77.88831       17.97099       -8.79374
H         73.43476       20.19971       -7.43240
H         73.93841       18.00242       -9.48263
H         75.46913       17.96298       -7.52727
H         75.93989       19.67279       -7.84161
N         73.15441       20.13226      -10.88913
C         72.98197       21.17189      -11.89669
C         71.58531       21.78145      -11.75749
O         70.77644       21.21006      -11.03782
C         73.15040       20.51807      -13.27311
H         72.43287       19.39608      -10.82731
H         73.76030       21.95152      -11.77045
H         74.15988       20.05985      -13.34195
H         72.38956       19.72129      -13.41623
H         73.05827       21.23289      -14.10698
N         71.16797       22.91109      -12.40355
C         72.00807       23.82507      -13.18251
C         73.05324       24.49921      -12.30546
O         73.02531       24.33819      -11.09266
C         71.13649       24.89278      -13.89164
C         70.19788       25.57568      -12.93875
O         70.66225       26.19525      -11.84416
O         68.99163       25.49416      -13.11038
H         70.17116       23.14829      -12.28440
H         72.53418       23.27150      -13.97732
H         70.52550       24.38846      -14.67199
H         71.77377       25.64608      -14.40067
N         74.03741       25.25053      -12.87829
C         75.10333       25.88821      -12.12011
C         76.42967       25.22552      -12.42401
O         76.44800       24.27950      -13.20091
H         74.06673       25.33542      -13.90600
H         74.91021       25.79259      -11.03543
H         75.13936       26.96842      -12.37488
N         77.60586       25.61180      -11.85008
C         77.79102       26.72743      -10.91704
C         76.93556       26.54437       -9.67736
O         76.98081       25.47214       -9.08839
C         79.27778       26.81589      -10.50083
C         80.18539       27.02254      -11.69249
N         81.13631       26.10959      -12.00573
O         80.05676       28.02203      -12.38356
H         78.43793       25.05686      -12.10856
H         77.51861       27.68105      -11.42053
H         79.56339       25.88122       -9.96875
H         79.42083       27.66641       -9.79989
H         81.26043       25.25658      -11.44083
H         81.74957       26.25097      -12.82236
N         76.11683       27.54296       -9.22382
C         75.19512       27.30428       -8.12483
C         74.50280       28.55280       -7.61036
O         75.14673       29.35194       -6.94772
H         76.12918       28.46472       -9.68658
H         75.73200       26.85865       -7.25935
H         74.44619       26.56189       -8.47330
N         73.16856       28.74567       -7.82760
C         72.35737       29.77354       -7.15683
C         71.01625       29.15776       -6.71879
O         70.81517       27.97338       -6.94275
C         72.19445       31.03446       -8.04044
C         73.53584       31.74278       -8.27383
O         71.61454       30.70032       -9.26984
H         72.68759       28.08610       -8.45702
H         72.86204       30.10368       -6.22180
H         71.54247       31.75411       -7.49479
H         71.23430       31.53869       -9.64339
H         74.23723       31.09788       -8.84182
H         73.37469       32.67744       -8.85165
H         73.99854       32.01827       -7.30090
N         70.05822       29.89096       -6.06365
C         68.82304       29.29088       -5.54460
C         67.60092       29.83001       -6.27737
O         67.36294       31.02823       -6.27914
C         68.69236       29.50946       -4.00967
C         67.38707       28.83436       -3.49516
C         69.93288       28.94175       -3.29320
C         67.12470       29.00160       -2.00033
H         70.21375       30.89439       -5.89597
H         68.84798       28.19053       -5.69407
H         68.63952       30.60124       -3.80154
H         67.40867       27.75222       -3.73614
H         66.51230       29.27993       -4.01401
H         70.85744       29.43369       -3.66097
H         69.88941       29.13485       -2.20315
H         70.01833       27.84781       -3.46586
H         66.15271       28.52508       -1.74897
H         67.90591       28.50304       -1.39302
H         67.07182       30.07884       -1.73817
N         66.76368       28.94630       -6.89414
C         65.53785       29.28775       -7.60797
C         64.31792       28.54238       -7.06102
O         63.24327       28.72765       -7.61732
C         65.73414       29.05602       -9.12070
C         66.20463       27.68379       -9.51580
O         67.36845       27.22580       -9.02108
O         65.61099       27.04584      -10.37017
H         67.01438       27.95395       -6.85455
H         65.31692       30.37260       -7.50062
H         66.52117       29.76257       -9.45809
H         64.80329       29.31896       -9.67015
N         64.37444       27.76180       -5.93822
C         63.19325       27.18520       -5.30199
C         63.42077       25.71206       -4.95742
O         63.41784       25.37684       -3.77954
C         62.86908       28.06271       -4.06686
C         61.68541       27.57954       -3.25677
C         60.42357       27.38901       -3.84894
C         61.84282       27.31685       -1.88374
C         59.34682       26.93209       -3.08143
C         60.76199       26.86981       -1.11989
C         59.51567       26.67404       -1.71848
H         65.26335       27.66678       -5.42756
H         62.30561       27.24769       -5.96528
H         62.64624       29.09145       -4.42571
H         63.77172       28.12501       -3.41868
H         60.27061       27.58421       -4.90209
H         62.80184       27.46161       -1.40153
H         58.38018       26.77801       -3.54320
H         60.89237       26.67435       -0.06334
H         58.68097       26.32354       -1.12543
N         63.59436       24.74715       -5.91639
C         63.70372       23.32039       -5.62034
C         64.88071       22.90692       -4.74842
O         64.96849       21.73362       -4.41435
C         63.84321       22.67273       -7.00171
C         63.03709       23.61533       -7.86760
C         63.48864       24.97663       -7.34207
H         62.75013       23.01891       -5.12990
H         64.90077       22.76075       -7.34477
H         63.54500       21.60285       -7.04117
H         63.16292       23.47665       -8.96192
H         61.96243       23.47299       -7.60743
H         64.49335       25.25180       -7.73188
H         62.73097       25.73588       -7.62502
N         65.83740       23.79805       -4.36361
C         66.95061       23.44753       -3.49943
C         66.39318       23.13289       -2.12640
O         66.59518       22.02787       -1.64228
C         67.99470       24.59279       -3.40089
C         68.96599       24.72737       -4.60309
C         68.45830       25.23780       -5.92996
O         69.24409       25.33871       -6.85639
O         67.19109       25.62422       -6.12534
H         65.75323       24.76966       -4.65999
H         67.48323       22.55337       -3.89587
H         68.66314       24.32890       -2.55073
H         67.51516       25.55877       -3.14529
H         69.43988       23.73661       -4.77296
H         69.76689       25.43425       -4.29586
N         65.65530       24.06289       -1.45561
C         65.05897       23.82905       -0.15669
H         63.95646       23.93483       -0.23751
H         65.28495       22.81629        0.23794
H         65.44008       24.58196        0.56380
H         65.48928       24.98267       -1.89131
Ca        69.08436       26.65474      -10.32880
O         71.79789       25.17918       -8.16672
H         72.04956       24.23278       -8.31210
H         72.15185       25.65789       -8.95700
O         69.27073       23.48059       -9.21317
H         68.86908       23.02279       -9.99328
H         68.98495       22.94048       -8.43388
O         69.45081       29.55215      -10.81515
H         69.83586       29.11599      -10.01426
H         68.68337       30.06748      -10.46370

Ca 1.0



