%chk=apoCaM-CA-Ng.loop1.water4.frame88.chk
%nprocshared=20
%mem=10GB
%nosave
#b3lyp/svp scf=(tight,noincore,xqc) Test 
#IOP(5/87=12) Density=Current Pop=(MK,readradii) iop(6/33=2) iop(6/42=6)

apoCaM-CA-Ng.loop1.water4.frame88 

   0  1 
C         69.55513       55.07469      113.00628
C         68.78193       54.03438      113.75920
O         67.99705       54.38903      114.62564
H         70.64281       54.90562      113.15397
H         69.31714       55.00938      111.92468
H         69.30268       56.09381      113.37055
N         68.97182       52.71413      113.48244
C         68.29673       51.63439      114.19778
C         69.27035       50.78111      115.00526
O         68.82149       49.83012      115.62928
C         67.43019       50.79835      113.22844
C         68.17225       50.04988      112.14995
O         67.53903       49.37963      111.35026
O         69.51447       50.09366      112.05142
H         69.64592       52.46967      112.74197
H         67.59548       52.05964      114.94335
H         66.70073       51.48081      112.74075
H         66.85016       50.05672      113.82092
N         70.59584       51.10074      115.10350
C         71.54773       50.39328      115.95370
C         72.00213       51.33703      117.05479
O         72.47181       52.40981      116.69758
C         72.76599       49.92597      115.13375
C         72.42009       48.76510      114.19106
C         73.68203       48.26244      113.47276
C         73.45048       46.97728      112.66103
N         72.49077       47.16181      111.57284
H         70.95517       51.92847      114.60674
H         71.09278       49.50320      116.38336
H         73.53845       49.55427      115.84257
H         73.20435       50.77856      114.56841
H         71.65570       49.09033      113.45563
H         72.00404       47.93209      114.79985
H         74.45436       48.02257      114.23681
H         74.08369       49.06308      112.81423
H         73.09991       46.16464      113.33605
H         74.42728       46.66275      112.23064
H         72.43868       46.27682      111.01818
H         71.53881       47.36528      111.95174
H         72.80289       47.93698      110.94452
N         71.92892       51.09152      118.40548
C         71.49816       49.89818      119.14989
C         72.39367       48.68215      118.89280
O         72.41544       48.19242      117.77552
C         70.02260       49.48130      118.95079
C         68.97862       50.51796      119.23296
O         69.26969       51.77834      119.60531
O         67.80694       50.19494      119.12350
H         72.25768       51.86423      119.00793
H         71.57142       50.17250      120.22174
H         69.82631       48.63295      119.64279
H         69.83021       49.09531      117.94045
N         73.12806       48.06621      119.86450
C         73.24576       48.53913      121.23603
C         74.05126       47.59246      122.11872
O         74.38778       46.50136      121.68292
H         73.64399       47.21948      119.58133
H         72.24188       48.64271      121.70090
H         73.75111       49.52769      121.19571
N         74.42826       47.92172      123.38821
C         74.17723       49.20818      124.02488
C         73.42687       49.01187      125.33275
O         73.21271       47.87663      125.74133
C         75.54803       49.89486      124.20853
C         75.47225       51.31598      124.68077
O         74.88849       52.15485      124.01256
O         76.07429       51.67856      125.82900
H         74.98407       47.23032      123.91850
H         73.54427       49.84790      123.37956
H         76.06369       49.91160      123.22283
H         76.16911       49.29304      124.90803
N         72.95574       50.08265      126.03036
C         72.19513       49.95393      127.25774
C         70.92052       49.18420      127.01306
O         70.69820       48.17401      127.66260
H         73.11144       51.03478      125.67059
H         71.92728       50.96832      127.62776
H         72.81593       49.45926      128.03729
N         70.03312       49.62646      126.07816
C         68.75415       48.98148      125.80052
C         68.64625       48.61296      124.33387
O         68.91549       49.45456      123.49444
C         67.59836       49.95275      126.12375
C         67.60054       50.37778      127.59234
O         66.37700       49.31610      125.83718
H         70.26103       50.48761      125.55769
H         68.60924       48.07349      126.42679
H         67.71600       50.86313      125.48668
H         65.73458       50.02152      125.56487
H         66.74780       51.06425      127.77824
H         67.49690       49.48964      128.25120
H         68.53940       50.91345      127.84466
N         68.13874       47.40148      123.96187
C         67.78469       47.07564      122.58099
C         66.28690       46.80595      122.54513
O         65.84959       45.88512      123.22026
C         68.58197       45.84086      122.07845
C         70.10493       46.10570      122.18657
C         68.17486       45.50792      120.62547
C         70.96002       44.88654      121.83943
H         67.91710       46.70969      124.69339
H         68.01834       47.92520      121.90321
H         68.33152       44.97176      122.72758
H         70.35487       46.37600      123.23493
H         70.39111       46.95726      121.53257
H         67.08586       45.30644      120.55388
H         68.41937       46.35504      119.94892
H         68.68133       44.59425      120.25913
H         70.83643       44.58753      120.77992
H         72.03001       45.13266      121.99569
H         70.69435       44.03323      122.49940
N         65.44227       47.57269      121.78681
C         63.99479       47.34397      121.74810
C         63.47620       46.99415      120.35627
O         62.35105       46.51959      120.28555
C         63.22825       48.55635      122.33378
C         63.33438       49.81750      121.46035
O         63.71985       48.82754      123.62162
H         65.83871       48.34936      121.24281
H         63.75052       46.47055      122.39143
H         62.15079       48.27413      122.40159
H         63.03133       49.37014      124.08810
H         62.76418       50.64811      121.92729
H         64.38510       50.14069      121.34316
H         62.90458       49.63523      120.45295
N         64.20406       47.21366      119.21688
C         63.75755       46.90257      117.85486
C         62.51371       47.67740      117.43612
O         61.53954       47.73727      118.17013
C         63.55571       45.39213      117.61640
C         64.84066       44.61714      117.90729
O         63.22228       45.17317      116.26639
H         65.14207       47.63036      119.29539
H         64.57899       47.20039      117.16318
H         62.75407       44.99022      118.27614
H         62.23310       45.21388      116.19256
H         64.68354       43.54123      117.68495
H         65.67032       44.99159      117.26765
H         65.12996       44.72210      118.97283
N         62.48126       48.25854      116.20541
C         61.35095       49.02952      115.69652
C         61.71822       50.49839      115.55388
O         60.83292       51.27926      115.24928
C         60.83376       48.42949      114.36353
C         61.88450       48.42821      113.23434
C         61.33040       47.81711      111.93941
C         62.36012       47.80824      110.79198
N         63.53852       46.99089      111.09587
H         63.31509       48.16390      115.60896
H         60.51054       48.99468      116.42391
H         59.94425       49.00850      114.02927
H         60.50543       47.38335      114.55155
H         62.75081       47.82228      113.55455
H         62.21801       49.46898      113.03129
H         60.45124       48.41232      111.60861
H         60.99233       46.77514      112.13087
H         62.67798       48.84815      110.55687
H         61.86202       47.39148      109.88863
H         64.14396       46.93780      110.24519
H         64.10470       47.42158      111.86068
H         63.24998       46.02205      111.36416
N         62.98453       50.94224      115.81177
C         63.45089       52.32578      115.75709
C         63.47272       52.84069      114.31549
O         64.54437       52.94165      113.73147
C         64.88428       52.38241      116.36275
C         65.01296       51.91453      117.83023
C         64.38870       52.84723      118.83405
O         63.18513       53.04707      118.83017
O         65.15736       53.43688      119.77604
H         63.68592       50.24843      116.09321
H         62.80781       52.98621      116.37321
H         65.29554       53.41182      116.28249
H         65.52369       51.70569      115.75647
H         66.09587       51.85090      118.04236
H         64.60243       50.89407      117.97542
N         62.32540       53.21991      113.68466
C         62.28216       53.69418      112.31620
H         61.87753       54.72737      112.29916
H         63.28154       53.69824      111.83326
H         61.61256       53.03595      111.72354
H         61.43232       53.20525      114.18911
Ca        67.38578       53.00457      119.85551
O         67.60248       54.44182      117.42144
H         68.55833       54.69164      117.35963
H         67.13713       55.28260      117.65815
O         66.66668       51.09341      122.00494
H         66.17666       51.31469      122.83518
H         66.97406       50.16486      122.14193
O         66.45783       56.03098      120.41665
H         65.69138       56.04772      119.78982
H         66.12537       56.49407      121.22581
O         69.61114       52.30806      122.66245
H         70.58346       52.18398      122.79842
H         69.33920       51.51864      122.13289

Ca 1.0



