%chk=apoCaM-CA-Ng.loop1.water4.frame722.chk
%nprocshared=20
%mem=10GB
%nosave
#b3lyp/svp scf=(tight,noincore,xqc) Test 
#IOP(5/87=12) Density=Current Pop=(MK,readradii) iop(6/33=2) iop(6/42=6)

apoCaM-CA-Ng.loop1.water4.frame722 

   0  1 
C         69.74915      109.65215       19.84035
C         70.63267      110.85687       19.68210
O         70.13703      111.93444       19.38603
H         68.69700      109.88841       19.57512
H         70.11051      108.84879       19.16337
H         69.78604      109.28156       20.88668
N         71.97813      110.71943       19.83189
C         72.94689      111.79452       19.64027
C         73.81928      111.50797       18.43080
O         74.27912      110.39677       18.27696
C         73.77724      112.03750       20.91841
C         74.54150      110.88157       21.54383
O         75.13211      111.09878       22.58984
O         74.54596      109.61538       21.05809
H         72.33392      109.77921       20.05542
H         72.42664      112.75999       19.44719
H         73.07287      112.41701       21.69267
H         74.49851      112.85834       20.70500
N         74.03538      112.45671       17.48132
C         74.80722      112.20256       16.26319
C         76.30268      112.02457       16.49314
O         76.91723      112.82121       17.18853
C         74.55701      113.27732       15.19205
C         74.96019      114.71718       15.56088
C         74.50285      115.72425       14.49165
C         75.17884      115.53977       13.12248
N         74.67164      116.52129       12.16314
H         73.57553      113.36818       17.60697
H         74.40827      111.27496       15.79557
H         73.46983      113.25897       14.96572
H         75.10625      112.96243       14.27866
H         76.05623      114.79478       15.72219
H         74.45489      115.01531       16.50097
H         74.73475      116.74640       14.86090
H         73.39974      115.64334       14.37349
H         74.98170      114.52529       12.71656
H         76.27804      115.66494       13.23784
H         75.18878      116.41994       11.26026
H         73.65368      116.35296       11.98793
H         74.80863      117.49229       12.52630
N         76.95599      111.01331       15.84993
C         78.40415      110.80638       15.88228
C         78.91569      110.44466       14.48121
O         78.12312      109.96490       13.68127
C         78.73094      109.75531       16.96647
C         78.03273      108.42862       16.75830
O         77.09759      107.93427       17.61182
O         78.33098      107.75703       15.78488
H         76.39217      110.37791       15.26587
H         78.89716      111.76269       16.16238
H         78.42121      110.17608       17.94268
H         79.82864      109.58183       17.00676
N         80.17821      110.70420       14.02913
C         81.29092      111.28467       14.76374
C         81.60820      112.66846       14.24215
O         80.77179      113.25896       13.57723
H         80.36553      110.48830       13.04019
H         82.16944      110.62419       14.59144
H         81.11801      111.34192       15.85459
N         82.79510      113.27142       14.53675
C         83.13224      114.61224       14.06186
C         83.25085      114.61914       12.53927
O         84.03089      113.84834       11.99577
C         84.43371      115.11193       14.73533
C         84.70985      116.58264       14.52084
O         85.77241      117.14809       15.12441
O         83.96785      117.27982       13.84614
H         83.47116      112.76221       15.12774
H         82.32757      115.30304       14.39755
H         85.30635      114.51301       14.39474
H         84.32720      114.97532       15.83345
N         82.50722      115.48425       11.79068
C         82.56926      115.55659       10.33607
C         81.89111      114.40336        9.61358
O         81.89502      114.42257        8.39116
H         81.91004      116.16968       12.27644
H         83.62811      115.64482       10.01030
H         82.04046      116.47922       10.01018
N         81.23709      113.40758       10.27656
C         80.51257      112.32793        9.61191
C         80.93362      110.95965       10.13862
O         81.70362      110.86915       11.08296
C         78.97551      112.56170        9.76085
C         78.49142      112.72695       11.20832
O         78.61363      113.71736        9.05126
H         81.19968      113.43844       11.29643
H         80.73412      112.32365        8.52317
H         78.41521      111.69456        9.34196
H         78.48751      113.44432        8.10428
H         77.39200      112.89322       11.22081
H         78.71333      111.82380       11.80721
H         78.95583      113.61461       11.68552
N         80.41498      109.84116        9.55804
C         80.57247      108.47888       10.07133
C         81.92083      107.89734        9.66612
O         82.51483      107.18358       10.46338
C         79.37321      107.59866        9.59868
C         78.03109      108.27922       10.01306
C         79.44280      106.17583       10.19650
C         76.78863      107.63623        9.40665
H         79.80152      109.97966        8.74186
H         80.50560      108.50486       11.18403
H         79.42403      107.52701        8.48963
H         77.99315      109.32816        9.66561
H         77.94647      108.30357       11.12129
H         78.63282      105.53596        9.79197
H         80.39747      105.67187        9.94540
H         79.34196      106.21180       11.30380
H         76.84936      107.67269        8.29764
H         76.65805      106.59071        9.74285
H         75.89604      108.21580        9.72640
N         82.50759      108.24480        8.48076
C         83.87798      107.88282        8.12681
C         83.99114      107.61249        6.63297
O         83.57662      108.44421        5.83773
C         84.84393      109.02586        8.51053
C         84.79760      109.32399       10.01651
O         86.15126      108.64635        8.16205
H         82.01847      108.91611        7.87126
H         84.20897      106.98457        8.69747
H         84.55469      109.94178        7.94560
H         86.71827      109.45686        8.24185
H         83.79337      109.67384       10.31768
H         85.05639      108.41617       10.60339
H         85.51581      110.12999       10.26894
N         84.58382      106.47093        6.19056
C         84.77433      106.13254        4.78119
C         85.27612      104.70541        4.70353
O         84.62133      103.88734        4.07207
C         85.71682      107.13953        4.04173
C         85.90247      106.79541        2.55557
O         86.98334      107.19602        4.64895
H         84.91351      105.80255        6.90444
H         83.78679      106.16723        4.26845
H         85.24124      108.14752        4.05254
H         87.04555      108.05674        5.13927
H         86.51328      107.58086        2.05767
H         86.42835      105.82483        2.43152
H         84.92127      106.74323        2.03769
N         86.42970      104.33614        5.33124
C         86.96979      102.99104        5.25505
C         87.47630      102.53066        6.61425
O         88.22242      103.26977        7.24375
C         88.12378      103.01235        4.25077
C         88.48286      101.59265        3.81306
C         89.66406      101.60977        2.84987
C         89.86877      100.21777        2.24985
N         91.00346      100.20953        1.33189
H         86.98708      105.05290        5.81910
H         86.20306      102.28704        4.85974
H         88.99512      103.55724        4.67600
H         87.79165      103.55310        3.33528
H         87.59150      101.16466        3.29878
H         88.73059      100.94991        4.68523
H         90.57321      101.93627        3.40242
H         89.46909      102.32826        2.02377
H         88.94845       99.92528        1.69442
H         90.04033       99.47798        3.06266
H         91.87775      100.46817        1.84390
H         91.10917       99.24851        0.93514
H         90.83638      100.88434        0.55013
N         87.20064      101.28197        7.08720
C         87.79168      100.78098        8.32538
C         87.17740      101.45327        9.55017
O         87.93280      102.09449       10.26715
C         87.82906       99.23303        8.34393
C         88.48209       98.67153        9.62067
C         88.90469       97.24095        9.43237
O         88.33551       96.25753       10.15352
O         89.79600       96.96944        8.64188
H         86.64671      100.64185        6.49755
H         88.87563      101.04637        8.31218
H         88.44655       98.94194        7.46349
H         86.83334       98.76252        8.21558
H         87.75223       98.75662       10.45511
H         89.39385       99.24614        9.89158
N         85.85639      101.40685        9.89245
C         84.80636      100.72774        9.16557
H         84.03828      101.46945        8.86062
H         85.16121      100.21502        8.25897
H         84.33102       99.97876        9.83273
H         85.56322      101.91205       10.74374
Ca        75.80322      108.72148       19.33539
O         76.23834      105.72483       19.64990
H         76.39071      105.30322       18.76736
H         76.32194      104.98281       20.29966
O         75.27609      107.08644       22.29276
H         75.48131      107.83391       22.90895
H         75.99126      106.42364       22.46243
O         77.84188      108.33029       21.24437
H         78.51958      109.01893       21.45611
H         78.25205      107.47479       21.52351
O         77.07560      110.95158       20.07642
H         78.02581      111.16484       20.23616
H         76.75344      111.63182       19.43669

Ca 1.0



