%chk=apoCaM-CA-Ng.loop1.water3.frame1106.chk
%nprocshared=20
%mem=10GB
%nosave
#b3lyp/svp scf=(tight,noincore,xqc) Test 
#IOP(5/87=12) Density=Current Pop=(MK,readradii) iop(6/33=2) iop(6/42=6)

apoCaM-CA-Ng.loop1.water3.frame1106 

   0  1 
C         60.02184      -13.20813       72.81787
C         59.31184      -14.43956       72.34614
O         59.67294      -14.96668       71.30335
H         60.82850      -12.92494       72.10731
H         59.29988      -12.36745       72.88765
H         60.47045      -13.39520       73.81483
N         58.26740      -14.94495       73.06439
C         57.50344      -16.11357       72.63692
C         56.08649      -15.70679       72.28403
O         55.12793      -16.33674       72.71073
C         57.59411      -17.24653       73.68634
C         57.02004      -16.92853       75.04901
O         56.49184      -15.85428       75.29020
O         57.08514      -17.85908       76.01937
H         57.98744      -14.45289       73.92529
H         57.93166      -16.51459       71.69572
H         58.66611      -17.50776       73.81741
H         57.06959      -18.14401       73.29301
N         55.89789      -14.62499       71.48266
C         54.59012      -14.17689       71.03098
C         54.01131      -15.17106       70.02872
O         52.91114      -15.63914       70.28592
C         54.63778      -12.72703       70.49074
C         55.12392      -11.76090       71.59285
C         55.15947      -10.30442       71.12438
C         55.71866       -9.40170       72.23633
N         55.78677       -8.00796       71.80168
H         56.72887      -14.08482       71.20132
H         53.90763      -14.11962       71.91139
H         53.61064      -12.42780       70.18502
H         55.29631      -12.63912       69.60475
H         56.14996      -12.04317       71.90911
H         54.45308      -11.83841       72.47763
H         54.13286       -9.97476       70.85234
H         55.81396      -10.22383       70.22971
H         56.74190       -9.74494       72.51059
H         55.07386       -9.47424       73.14084
H         54.82911       -7.65547       71.57397
H         56.18738       -7.42895       72.57504
H         56.40558       -7.92391       70.96266
N         54.65372      -15.61450       68.89925
C         55.99666      -15.23952       68.44984
C         56.96727      -16.40610       68.61310
O         56.55365      -17.48753       69.00519
C         55.94850      -14.66730       67.02019
C         55.32018      -15.59899       66.02463
O         55.86134      -16.80578       65.77448
O         54.31037      -15.25471       65.43327
H         54.16135      -16.32575       68.33579
H         56.41167      -14.44232       69.07807
H         56.97085      -14.40542       66.67605
H         55.35195      -13.72796       67.04845
N         58.30926      -16.20808       68.45284
C         59.30169      -17.19360       68.86418
C         59.45952      -18.38331       67.94809
O         58.89334      -18.41547       66.86717
H         58.64439      -15.26979       68.18810
H         59.04446      -17.54371       69.88600
H         60.29897      -16.70780       68.92283
N         60.23877      -19.42474       68.36679
C         60.52215      -20.63345       67.58784
C         62.00585      -20.99489       67.70148
O         62.68995      -20.38050       68.50913
C         59.61826      -21.76501       68.13394
C         58.19541      -21.40015       67.85043
O         57.83314      -21.17795       66.57253
O         57.40403      -21.21470       68.75976
H         60.59965      -19.38374       69.33338
H         60.29469      -20.45204       66.51637
H         59.78864      -21.89476       69.22623
H         59.79900      -22.73819       67.65736
N         62.62041      -21.97286       66.96679
C         62.04088      -22.74378       65.87767
C         61.82140      -21.88814       64.65938
O         62.79182      -21.32554       64.17099
H         63.61083      -22.17148       67.18122
H         61.13665      -23.28741       66.18579
H         62.77185      -23.52482       65.57325
N         60.58553      -21.76405       64.09184
C         60.35416      -21.00487       62.86414
C         59.49686      -19.78258       63.14016
O         58.82563      -19.72369       64.15943
C         59.76901      -21.93738       61.77276
C         59.60848      -21.26194       60.40847
O         58.52049      -22.44147       62.17212
H         59.78330      -22.23115       64.54182
H         61.32671      -20.62025       62.48605
H         60.48991      -22.77596       61.61651
H         58.68418      -23.30005       62.64271
H         60.58399      -20.86224       60.05826
H         59.24626      -22.00332       59.66509
H         58.86385      -20.44059       60.45420
N         59.59255      -18.70761       62.30472
C         58.96230      -17.40752       62.50178
C         57.44809      -17.47685       62.35075
O         56.79182      -18.19773       63.08831
C         59.36264      -16.74435       63.85672
C         60.87594      -16.86029       64.18864
C         58.90742      -15.27167       63.89196
C         61.82424      -16.27161       63.14246
H         60.22443      -18.78323       61.49302
H         59.35970      -16.74373       61.70130
H         58.82998      -17.26301       64.67694
H         61.14092      -17.93063       64.32027
H         61.06722      -16.36303       65.16510
H         59.16196      -14.81122       64.86995
H         59.39216      -14.68406       63.08404
H         57.80811      -15.19366       63.75929
H         61.64788      -15.18691       63.00191
H         62.87147      -16.41077       63.48605
H         61.71364      -16.79567       62.17115
N         56.82459      -16.66435       61.45170
C         55.37031      -16.53746       61.36096
C         54.67864      -17.72208       60.68994
O         53.45647      -17.69836       60.61668
C         54.99451      -15.22523       60.61047
C         55.37829      -15.24077       59.12153
O         55.61833      -14.12515       61.22267
H         57.41450      -16.01839       60.90763
H         54.97618      -16.43101       62.39639
H         53.88918      -15.08237       60.64774
H         55.15490      -13.97275       62.08709
H         55.07277      -14.28345       58.64879
H         56.47121      -15.36134       58.97784
H         54.85794      -16.06369       58.58794
N         55.37118      -18.74347       60.10724
C         54.71752      -19.75973       59.28313
C         53.73337      -20.59382       60.08045
O         54.16353      -21.36221       60.92791
C         55.77758      -20.67483       58.61049
C         55.15347      -21.78421       57.75599
O         56.60868      -19.89939       57.78312
H         56.39892      -18.74894       60.17162
H         54.16705      -19.23094       58.47272
H         56.38152      -21.18420       59.40147
H         57.43747      -19.70088       58.29175
H         54.53828      -22.46671       58.37921
H         54.51910      -21.35039       56.95485
H         55.95624      -22.39449       57.29116
N         52.38992      -20.51797       59.82413
C         51.39530      -21.40096       60.42872
C         51.52710      -21.36020       61.93945
O         51.87186      -22.36714       62.54489
C         51.54802      -22.83096       59.85438
C         51.40258      -22.85254       58.32019
C         51.61985      -24.26854       57.76604
C         51.64694      -24.32168       56.22763
N         50.36128      -23.96887       55.62402
H         52.05007      -19.82001       59.14503
H         50.37421      -21.05584       60.14886
H         50.76731      -23.48786       60.29845
H         52.54474      -23.23857       60.12768
H         52.16674      -22.18409       57.87143
H         50.39607      -22.47547       58.03958
H         50.83920      -24.95678       58.15726
H         52.61068      -24.62942       58.11881
H         51.90897      -25.35920       55.92304
H         52.44240      -23.64472       55.84303
H         50.43910      -24.07009       54.58586
H         49.61386      -24.61405       55.96839
H         50.10816      -22.97835       55.83642
N         51.30533      -20.19466       62.60834
C         51.60172      -20.02886       64.02617
C         52.58697      -18.87705       64.21084
O         53.71630      -19.17546       64.56758
C         50.32894      -19.93885       64.88622
C         49.52784      -21.24915       64.82279
C         48.35602      -21.21116       65.75909
O         48.55586      -21.06766       67.08368
O         47.22010      -21.33084       65.32955
H         50.95538      -19.39226       62.07059
H         52.13114      -20.93503       64.39996
H         49.66741      -19.11716       64.56082
H         50.64122      -19.76619       65.94038
H         50.17384      -22.10427       65.11865
H         49.17540      -21.41808       63.78148
N         52.32577      -17.55431       63.98324
C         51.05120      -16.96639       63.63366
H         50.32772      -17.09684       64.45985
H         51.17650      -15.87001       63.50439
H         50.65890      -17.36557       62.68294
H         53.10895      -16.89619       64.09155
Ca        56.06502      -19.90517       66.03060
O         54.36860      -19.53779       68.41316
H         54.13180      -18.78286       69.00664
H         55.30457      -19.75189       68.65105
O         55.82894      -21.01696       63.22527
H         56.53520      -21.59507       63.60610
H         54.98514      -21.48723       63.44116
O         54.22782      -22.03420       66.05600
H         53.60479      -21.62696       66.70865
H         53.76925      -22.85236       65.74285

Ca 1.0



