%chk=apoCaM-CA-Ng.loop2.water4.frame346.chk
%nprocshared=20
%mem=10GB
%nosave
#b3lyp/svp scf=(tight,noincore,xqc) Test 
#IOP(5/87=12) Density=Current Pop=(MK,readradii) iop(6/33=2) iop(6/42=6)

apoCaM-CA-Ng.loop2.water4.frame346 

   -2  1 
C         60.56491       89.29733       49.51974
C         59.31726       89.82867       50.16079
O         59.17424       89.72243       51.37076
H         61.24714       88.86249       50.28125
H         60.30073       88.50976       48.78699
H         61.09615       90.12076       48.99644
N         58.37614       90.45569       49.40292
C         57.17292       91.04063       49.97984
C         56.19213       89.95913       50.40555
O         55.63955       89.29911       49.53788
C         56.50530       91.98151       48.95090
C         55.27775       92.65237       49.50180
O         54.19461       92.48704       48.96340
O         55.36822       93.44432       50.58687
H         58.56353       90.57483       48.39447
H         57.47587       91.66391       50.85108
H         56.23656       91.40419       48.03707
H         57.23004       92.76966       48.65297
N         55.90097       89.74671       51.72198
C         54.84680       88.84011       52.16841
C         55.40811       87.64592       52.91910
O         56.09904       87.82134       53.91328
C         53.86459       89.61082       53.05351
H         56.42155       90.27618       52.43830
H         54.26368       88.46364       51.29998
H         54.37846       90.01427       53.95273
H         53.42758       90.45891       52.48413
H         53.03874       88.94390       53.38192
N         55.10969       86.38242       52.49397
C         55.56195       85.16464       53.16136
C         55.03494       85.07672       54.58328
O         53.83429       85.17535       54.79758
C         55.09480       83.90689       52.40088
C         55.72943       83.80925       51.04527
O         57.06937       83.73196       50.93885
O         55.03832       83.76935       50.04054
H         54.52316       86.28016       51.65137
H         56.67477       85.14974       53.17510
H         53.98522       83.90542       52.31439
H         55.40000       83.00032       52.96862
N         55.90238       84.82598       55.60072
C         55.47098       84.64550       56.98332
C         56.60292       84.34725       57.96557
O         56.30342       83.85149       59.04126
H         56.88412       84.69718       55.33587
H         54.76945       83.78243       56.99934
H         54.92007       85.54076       57.34415
N         57.90057       84.69064       57.70873
C         59.04360       84.43603       58.59544
C         60.25926       85.26016       58.15610
O         60.20759       85.93686       57.13650
C         59.42148       82.92831       58.60664
C         58.45659       82.06344       59.37323
N         58.29587       82.23896       60.70682
O         57.83678       81.18187       58.79722
H         58.08108       85.22693       56.85733
H         58.80355       84.79987       59.61776
H         60.40482       82.77351       59.09726
H         59.51674       82.57673       57.55458
H         58.82973       82.96334       61.20974
H         57.64940       81.64179       61.24302
N         61.39015       85.28437       58.91947
C         62.53810       86.11951       58.59201
C         63.78145       85.31018       58.34669
O         63.75558       84.09270       58.47256
H         61.43134       84.72131       59.78266
H         62.72099       86.83114       59.42370
H         62.35242       86.71582       57.67323
N         64.91287       85.94850       57.92963
C         66.14530       85.24781       57.58385
C         66.35018       85.20905       56.07357
O         67.24039       84.49883       55.62917
C         67.36403       85.86824       58.31794
C         67.75755       87.26568       57.80139
O         67.13896       85.89738       59.70590
H         64.86952       86.97011       57.79321
H         66.05977       84.18723       57.90756
H         68.24605       85.21644       58.13701
H         66.49942       86.63393       59.89611
H         68.63465       87.64528       58.36556
H         68.05346       87.20509       56.73602
H         66.92849       87.99545       57.90675
N         65.55379       85.92812       55.22617
C         65.63152       85.87501       53.77363
C         64.29084       85.39535       53.26229
O         63.26280       85.90506       53.68952
C         65.97950       87.26785       53.17494
C         67.30966       87.84220       53.72590
C         66.01892       87.21287       51.63266
C         68.55532       86.98344       53.46903
H         64.82698       86.54662       55.61053
H         66.41583       85.16353       53.43722
H         65.17930       87.98748       53.45925
H         67.20421       87.99581       54.81678
H         67.47989       88.84335       53.27385
H         66.76769       86.47662       51.27286
H         65.03133       86.92059       51.22092
H         66.26540       88.21198       51.21632
H         68.47285       85.99330       53.95622
H         68.73261       86.84006       52.38425
H         69.44456       87.49120       53.89712
N         64.23708       84.44906       52.29071
C         62.99042       83.94673       51.73678
C         63.12397       82.43790       51.51484
O         62.50816       81.89609       50.60887
C         62.72251       84.75117       50.44756
C         61.36171       84.55778       49.84244
O         60.44700       83.74812       50.41021
O         61.07114       85.17706       48.83191
H         65.12199       84.13160       51.86345
H         62.14681       84.14483       52.43500
H         63.50711       84.52111       49.70342
H         62.79471       85.83435       50.69040
N         63.97754       81.70656       52.29250
C         64.29734       80.30178       52.06133
C         64.99375       80.14495       50.71237
O         66.00708       80.80155       50.50951
C         65.28539       79.79854       53.14529
C         64.78252       79.74681       54.57468
C         65.71031       79.40493       55.57508
C         63.44759       80.00783       54.94910
C         65.32135       79.32845       56.91440
C         63.06157       79.92034       56.29163
C         63.99701       79.58294       57.27257
H         64.45610       82.17751       53.07512
H         63.37731       79.68651       52.11313
H         66.18118       80.45998       53.12125
H         65.61584       78.76868       52.88408
H         66.74266       79.20189       55.31564
H         62.69428       80.26725       54.21977
H         66.04805       79.06898       57.67370
H         62.03411       80.11232       56.57254
H         63.69613       79.51709       58.31014
N         64.56371       79.26629       49.75439
C         65.30595       78.99907       48.53018
C         65.06116       80.03505       47.44303
O         65.67819       79.92864       46.39219
C         64.77007       77.62493       48.11097
C         63.30984       77.72932       48.51297
C         63.41424       78.39263       49.88454
H         66.39849       78.91973       48.72581
H         64.96226       77.34006       47.05436
H         65.22918       76.85287       48.77022
H         62.82158       78.44307       47.81030
H         62.73242       76.78112       48.50557
H         62.47121       78.93964       50.10296
H         63.62864       77.64965       50.68386
N         64.13320       81.01901       47.58948
C         63.80334       81.95785       46.52680
C         64.92637       82.95314       46.32586
O         65.43733       83.05641       45.21923
C         62.47659       82.67730       46.83988
C         61.30789       81.67242       46.88961
C         59.99941       82.34911       47.15314
O         59.57600       83.19141       46.37805
O         59.26884       82.00329       48.23066
H         63.58716       81.05948       48.45890
H         63.63300       81.40017       45.57743
H         62.27120       83.41987       46.03736
H         62.55924       83.21461       47.80459
H         61.47793       80.91719       47.68568
H         61.23459       81.14006       45.91713
N         65.36088       83.72745       47.35661
C         66.40165       84.71894       47.19451
H         67.33850       84.23710       46.84383
H         66.07984       85.48611       46.45794
H         66.59930       85.22273       48.16499
H         64.94252       83.60808       48.28835
Ca        58.23494       84.76033       48.51271
O         59.29553       86.93079       46.68526
H         58.58177       87.51956       47.03807
H         60.05777       87.53870       46.51376
O         56.26254       86.75948       48.70339
H         56.04347       87.20991       47.84977
H         55.55152       86.08157       48.81648
O         56.13657       83.67834       46.67574
H         56.37124       82.74059       46.89039
H         56.87494       83.99186       46.09501
O         58.72056       86.69104       50.77430
H         59.34622       86.50856       51.51938
H         58.02590       87.27639       51.16766

Ca 1.0



