%chk=apoCaM-CA-Ng.loop3.water4.frame188.chk
%nprocshared=20
%mem=10GB
%nosave
#b3lyp/svp scf=(tight,noincore,xqc) Test 
#IOP(5/87=12) Density=Current Pop=(MK,readradii) iop(6/33=2) iop(6/42=6)

apoCaM-CA-Ng.loop3.water4.frame188 

   0  1 
C         70.24008       33.52174       12.42115
C         68.98199       33.07393       11.74313
O         68.12116       33.89745       11.47871
H         71.11353       33.28272       11.77910
H         70.21888       34.61746       12.60475
H         70.34447       32.99683       13.39364
N         68.80062       31.75902       11.44259
C         67.61376       31.23105       10.78053
C         66.36722       31.53263       11.59961
O         65.43411       32.14797       11.10012
C         67.51301       31.73540        9.32188
C         68.73420       31.36182        8.52713
O         69.42232       32.22858        8.01432
O         69.07184       30.06734        8.37067
H         69.53895       31.08801       11.70583
H         67.70901       30.12265       10.72952
H         67.37387       32.83643        9.30037
H         66.62969       31.27152        8.83139
N         66.28269       31.08000       12.88219
C         65.07504       31.20610       13.69653
C         64.75956       32.63496       14.17056
O         63.75863       32.80276       14.85309
C         65.13224       30.19737       14.87021
C         66.10475       30.55347       16.01388
C         66.09460       29.46502       17.11131
C         66.87269       28.18106       16.75240
N         68.32242       28.39387       16.80130
H         67.07497       30.52708       13.24526
H         64.22405       30.85688       13.06946
H         65.37967       29.20227       14.44261
H         64.11358       30.12061       15.31035
H         65.73358       31.49563       16.47013
H         67.13549       30.74042       15.65167
H         65.03514       29.20627       17.33039
H         66.53077       29.86838       18.04974
H         66.57132       27.78519       15.75952
H         66.62145       27.40288       17.50673
H         68.62635       29.11916       16.11542
H         68.60223       28.68530       17.76724
H         68.81023       27.49625       16.57881
N         65.54788       33.70662       13.85566
C         65.29875       35.07728       14.31708
C         63.92758       35.57330       13.87002
O         63.61723       35.47046       12.69131
C         66.40242       36.01685       13.77539
C         66.36424       37.38306       14.40900
O         67.43095       37.83245       15.09696
O         65.38290       38.09724       14.29511
H         66.37934       33.54641       13.27524
H         65.36886       35.09001       15.42770
H         66.31480       36.10915       12.67056
H         67.39678       35.57548       14.00484
N         63.06135       36.13931       14.76352
C         61.72218       36.58901       14.40253
C         61.73052       37.67801       13.34493
O         61.24764       37.43961       12.24757
H         63.35233       36.23571       15.74866
H         61.19945       36.97507       15.30622
H         61.15148       35.71105       14.03296
N         62.23930       38.91298       13.61735
C         62.27605       40.00701       12.63243
C         63.20651       39.73714       11.44659
O         63.22381       40.54746       10.52887
C         62.68865       41.36225       13.26067
C         64.12588       41.35085       13.80573
N         64.59154       42.70629       14.06531
O         64.12519       40.59605       14.98205
H         62.54658       39.06627       14.58321
H         61.24175       40.13725       12.24371
H         61.97959       41.66119       14.06404
H         62.61243       42.13529       12.46326
H         64.54075       43.24690       13.16997
H         65.60988       42.63322       14.27042
N         64.00924       38.64115       11.38671
C         64.88888       38.35402       10.27139
C         66.08581       39.27763       10.20098
O         66.32861       39.86197        9.15602
H         63.98765       37.94865       12.14245
H         64.31093       38.35086        9.32073
H         65.30151       37.33145       10.41202
N         66.93240       39.36913       11.26611
C         68.25328       39.99033       11.21549
C         68.43054       41.10770       12.21279
O         68.28170       40.88211       13.40461
C         69.30311       38.91696       11.56180
C         69.52543       37.98573       10.41120
C         70.39025       38.38087        9.38015
C         68.89904       36.73560       10.35052
C         70.63656       37.53157        8.30351
C         69.13608       35.88993        9.26085
C         70.01057       36.28503        8.23721
O         70.25651       35.47951        7.18614
H         66.67013       38.88416       12.13463
H         68.47445       40.39728       10.20453
H         68.99058       38.36956       12.48086
H         70.28940       39.37405       11.80431
H         70.88371       39.34467        9.42085
H         68.22433       36.42863       11.13817
H         71.31521       37.84468        7.52123
H         68.64503       34.92944        9.20852
H         69.84019       34.61224        7.09549
N         68.87370       42.32500       11.77760
C         69.35746       43.36304       12.67429
C         68.37393       44.51000       12.66684
O         67.81912       44.78673       13.71549
C         70.80258       43.80344       12.26636
C         71.78717       42.61284       12.08529
C         71.39673       44.82324       13.25870
C         72.13189       41.84754       13.36643
H         68.94682       42.50269       10.76450
H         69.41057       42.97049       13.71264
H         70.73182       44.29180       11.26896
H         72.73944       43.00020       11.65994
H         71.37258       41.89651       11.34452
H         72.39678       45.15923       12.90860
H         70.76277       45.71151       13.36826
H         71.49074       44.39397       14.27556
H         72.82616       41.01693       13.12045
H         72.65405       42.50156       14.09500
H         71.22250       41.42153       13.83225
N         68.06206       45.21250       11.54084
C         67.08795       46.30221       11.58528
C         67.56968       47.46153       12.45690
O         66.73661       48.22659       12.91731
C         66.73665       46.80313       10.17977
O         66.22360       45.74179        9.42129
H         68.49789       44.94872       10.64310
H         66.15345       45.89343       12.03478
H         67.65206       47.20933        9.69394
H         65.96499       47.60186       10.25949
H         66.04842       46.10698        8.51563
N         68.89985       47.64440       12.71914
C         69.45886       48.70455       13.56134
C         69.05687       48.60651       15.03637
O         69.36579       49.53833       15.77389
C         69.14006       50.08065       12.95987
H         69.57247       47.02511       12.25666
H         70.56843       48.61879       13.53799
H         69.50995       50.12124       11.91235
H         68.05503       50.30158       12.96703
H         69.66173       50.87755       13.53213
N         68.42677       47.51532       15.56280
C         67.99919       47.40417       16.95598
C         68.72401       46.28458       17.69884
O         69.51396       45.56762       17.09274
C         66.48311       47.17297       16.97734
H         68.23196       46.71454       14.95346
H         68.21689       48.34757       17.50293
H         66.09544       47.11044       18.01434
H         65.96799       48.01089       16.46163
H         66.22627       46.23226       16.44482
N         68.51990       46.10918       19.04234
C         69.14763       45.08593       19.88992
C         70.66387       45.20690       19.98902
O         71.25828       44.36994       20.65730
C         68.75726       43.65915       19.44986
C         67.24551       43.43435       19.52504
C         66.89295       42.07882       19.00323
O         67.32299       41.73731       17.77903
O         66.15923       41.33181       19.63062
H         67.86190       46.74895       19.51589
H         68.76537       45.21025       20.92798
H         69.23889       42.90918       20.11614
H         69.12312       43.47827       18.41683
H         66.73808       44.17765       18.87621
H         66.86712       43.56465       20.56275
N         71.36954       46.21030       19.39719
C         72.81023       46.28186       19.50143
H         73.11100       46.35063       20.56864
H         73.26478       45.37542       19.04675
H         73.18562       47.17736       18.96401
H         70.89524       46.95329       18.86851
Ca        65.91666       40.81734       16.32666
O         67.21861       43.49323       15.86561
H         68.13016       43.12602       15.74979
H         67.30297       44.14380       16.60104
O         64.67203       38.16889       17.41700
H         64.98105       38.63413       18.23435
H         63.93505       38.73460       17.07474
O         68.22821       38.75597       17.94179
H         67.44495       39.03672       18.47724
H         68.67252       38.06684       18.49589
O         69.50851       40.63529       15.98772
H         70.16989       39.92053       15.80982
H         70.05217       41.44837       16.14063

Ca 1.0



