%chk=apoCaM-CA-Ng.loop2.water4.frame323.chk
%nprocshared=20
%mem=10GB
%nosave
#b3lyp/svp scf=(tight,noincore,xqc) Test 
#IOP(5/87=12) Density=Current Pop=(MK,readradii) iop(6/33=2) iop(6/42=6)

apoCaM-CA-Ng.loop2.water4.frame323 

   -2  1 
C         25.65621       83.07079       54.98862
C         25.57809       84.32684       55.81240
O         26.38780       84.49294       56.71259
H         26.64617       83.01031       54.49027
H         25.52297       82.18364       55.64285
H         24.86896       83.04674       54.20479
N         24.61267       85.25435       55.56030
C         24.44478       86.49332       56.31606
C         23.10615       86.46299       57.02246
O         22.11225       86.10576       56.40280
C         24.59654       87.73656       55.41591
C         23.57271       87.86373       54.31995
O         22.73705       88.91962       54.30610
O         23.51508       87.04103       53.42089
H         23.94179       85.05669       54.80332
H         25.24060       86.59202       57.08724
H         25.61118       87.73645       54.96203
H         24.52219       88.63339       56.07032
N         23.00833       86.79532       58.34302
C         21.77617       86.59170       59.09574
C         21.55083       85.10423       59.36474
O         20.48686       84.74807       59.85072
C         21.82447       87.35470       60.42307
H         23.83894       87.16704       58.82959
H         20.92905       87.00863       58.50556
H         22.65941       86.98721       61.05706
H         21.97369       88.43837       60.22609
H         20.86841       87.23249       60.97571
N         22.53022       84.18510       59.09839
C         22.42814       82.74692       59.28966
C         22.18799       82.40361       60.75345
O         21.26928       81.65690       61.06404
C         21.37680       82.16119       58.31616
C         21.42318       80.66067       58.19275
O         20.63052       80.09502       57.45734
O         22.35171       79.93437       58.84416
H         23.44048       84.50293       58.73930
H         23.41869       82.32170       59.00953
H         21.56706       82.56956       57.29958
H         20.35909       82.47854       58.63000
N         22.97762       82.95121       61.72098
C         22.79621       82.66062       63.13131
C         23.36638       81.30763       63.47506
O         22.62886       80.42630       63.89198
H         23.69726       83.64024       61.45442
H         21.71979       82.74980       63.39847
H         23.34965       83.40734       63.74156
N         24.71225       81.10950       63.37982
C         25.38376       79.87179       63.76804
C         26.88680       80.09880       63.76337
O         27.41984       80.48683       62.73209
C         25.04847       78.71586       62.80354
C         25.61560       77.41801       63.33195
N         26.63699       76.79073       62.70601
O         25.15348       76.93832       64.35632
H         25.28719       81.91296       63.07879
H         25.05374       79.60451       64.79703
H         25.45959       78.95610       61.79788
H         23.95362       78.58311       62.68808
H         27.07311       77.19609       61.87094
H         27.02038       75.91057       63.08019
N         27.63566       79.90532       64.88547
C         29.05674       80.21022       64.91789
C         29.88610       79.33103       64.00529
O         29.39256       78.34401       63.47648
H         27.17959       79.58958       65.75482
H         29.45037       80.09772       65.95097
H         29.18369       81.27239       64.61682
N         31.18813       79.66711       63.77707
C         32.10882       78.88024       62.95046
C         31.66937       78.73220       61.49157
O         32.32148       77.97688       60.77875
C         33.55580       79.45189       63.02300
C         33.70742       80.85776       62.40943
O         34.03081       79.42532       64.34819
H         31.53814       80.51294       64.24832
H         32.13995       77.85616       63.38379
H         34.22316       78.78350       62.43598
H         33.67913       80.21823       64.82973
H         33.44418       80.83927       61.33546
H         33.06576       81.60344       62.92306
H         34.76336       81.19114       62.49045
N         30.58771       79.38168       60.97416
C         30.09993       79.19185       59.61350
C         28.72456       78.56531       59.70281
O         27.84564       79.16101       60.31390
C         30.04932       80.55417       58.85383
C         31.46276       81.18222       58.78111
C         29.45795       80.37308       57.43857
C         31.48455       82.59639       58.19691
H         30.05170       80.03308       61.56534
H         30.76536       78.50743       59.03969
H         29.38620       81.24469       59.42221
H         32.14194       80.52709       58.19207
H         31.86466       81.26898       59.80745
H         29.36052       81.34264       56.91172
H         30.09202       79.69224       56.83129
H         28.43410       79.95380       57.48842
H         31.15812       82.61253       57.13844
H         30.83242       83.26655       58.79662
H         32.52207       82.99058       58.23236
N         28.44691       77.39241       59.06659
C         27.10595       76.82651       59.00742
C         27.09463       75.30064       59.25796
O         26.03750       74.70024       59.15562
C         26.52669       77.25636       57.64476
C         25.04635       77.10021       57.47702
O         24.34317       76.62087       58.35380
O         24.48938       77.48218       56.31304
H         29.18153       76.96677       58.47752
H         26.45043       77.30682       59.76366
H         27.05866       76.72408       56.82974
H         26.70443       78.34645       57.52478
N         28.22223       74.60990       59.62801
C         28.24473       73.16032       59.87022
C         28.01767       72.39914       58.56360
O         28.78950       72.62921       57.64550
C         29.62788       72.74424       60.43582
C         29.71942       71.25512       60.69594
C         28.94384       70.65116       61.70076
C         30.57983       70.45460       59.92315
C         29.02036       69.27129       61.91926
C         30.65066       69.07568       60.14254
C         29.87083       68.48403       61.13880
H         29.09725       75.12934       59.77598
H         27.48033       72.92270       60.63637
H         29.84188       73.28966       61.38049
H         30.40625       73.04415       59.69930
H         28.27829       71.24706       62.31242
H         31.18647       70.89388       59.14127
H         28.41822       68.81096       62.69197
H         31.30837       68.46522       59.53715
H         29.92622       67.41587       61.30573
N         27.03638       71.45129       58.38702
C         26.87140       70.68078       57.15318
C         26.45609       71.48732       55.93023
O         26.29985       70.90015       54.86889
C         25.75192       69.68723       57.49089
C         25.94491       69.49236       58.97763
C         26.18210       70.92916       59.43250
H         27.82785       70.14256       56.96533
H         24.76137       70.18694       57.37259
H         25.75445       68.76337       56.87330
H         25.10806       68.97639       59.49370
H         26.88206       68.90786       59.13080
H         25.23006       71.50458       59.43686
H         26.63529       70.90986       60.43905
N         26.21501       72.82399       56.01441
C         25.72184       73.65050       54.92456
C         26.76634       74.68977       54.51969
O         26.47042       75.49995       53.65287
C         24.38730       74.28111       55.39924
C         23.28945       73.20486       55.53575
C         22.01915       73.63343       56.24312
O         21.32278       74.73323       55.89003
O         21.59224       72.94364       57.15537
H         26.34480       73.30774       56.91111
H         25.52220       73.05491       54.00645
H         24.03843       75.04125       54.66855
H         24.56332       74.76848       56.37688
H         23.68672       72.33055       56.09498
H         23.03100       72.86203       54.51180
N         28.02865       74.68622       55.04754
C         29.08514       75.59071       54.64309
H         29.93545       74.99605       54.24293
H         28.75933       76.30463       53.86003
H         29.44122       76.16045       55.52688
H         28.29211       73.99189       55.75216
Ca        22.45660       76.65553       55.91239
O         21.21800       78.38462       60.97310
H         21.00870       77.82650       61.76267
H         21.98746       78.93736       61.25940
O         21.89894       78.95955       54.05547
H         21.64637       79.82794       54.45798
H         22.86272       78.86264       54.26143
O         19.10407       77.12546       56.84081
H         18.23630       76.74510       57.12879
H         19.00677       77.25359       55.86369
O         21.10351       75.57431       59.74461
H         21.28879       74.68294       59.35668
H         21.35733       75.48573       60.69765

Ca 1.0



