%chk=apoCaM-CA-Ng.loop2.water4.frame1481.chk
%nprocshared=20
%mem=10GB
%nosave
#b3lyp/svp scf=(tight,noincore,xqc) Test 
#IOP(5/87=12) Density=Current Pop=(MK,readradii) iop(6/33=2) iop(6/42=6)

apoCaM-CA-Ng.loop2.water4.frame1481 

   -2  1 
C         27.34590       65.99241       62.76352
C         28.53438       66.71931       63.34028
O         28.34051       67.42054       64.32211
H         26.58483       66.72974       62.43370
H         27.58817       65.33581       61.91170
H         26.90175       65.34694       63.55030
N         29.80425       66.61856       62.84608
C         30.18797       65.84396       61.67035
C         29.53207       66.37988       60.40521
O         28.81281       65.62429       59.76530
C         31.73225       65.68648       61.57207
C         32.60904       66.91244       61.73729
O         33.36185       66.97124       62.69720
O         32.66026       67.90023       60.82581
H         30.54375       67.12066       63.36109
H         29.82860       64.79742       61.80215
H         31.99833       65.15747       60.63144
H         32.00995       65.00604       62.40872
N         29.72353       67.65649       59.97698
C         29.10007       68.19636       58.77250
C         30.11966       68.43388       57.66787
O         29.73788       68.97037       56.63669
C         28.35677       69.48506       59.13556
H         30.33828       68.27869       60.51785
H         28.34998       67.49104       58.35197
H         29.06270       70.24683       59.52976
H         27.84027       69.90068       58.24363
H         27.58868       69.26985       59.90906
N         31.41126       67.99640       57.77419
C         32.39971       68.17632       56.71105
C         33.68479       67.32916       56.84507
O         34.43706       67.33740       55.87952
C         32.71583       69.68273       56.52303
C         33.15248       70.34494       57.79777
O         32.42738       71.35163       58.32249
O         34.16130       69.97741       58.36518
H         31.66307       67.48371       58.61595
H         31.94309       67.79950       55.76879
H         31.80633       70.21118       56.17220
H         33.49136       69.82230       55.73973
N         34.00601       66.54060       57.92445
C         35.14786       65.62816       57.93026
C         36.51206       66.28307       57.81097
O         37.48528       65.55482       57.68006
H         33.41442       66.49959       58.75788
H         35.02278       64.92681       57.07705
H         35.14009       65.02579       58.86516
N         36.66680       67.63374       57.82996
C         37.92717       68.31990       57.58310
C         38.32193       69.17446       58.77277
O         39.45449       69.07806       59.22514
C         37.75123       69.19890       56.32914
C         39.01536       69.94119       55.97130
N         39.03743       71.29437       55.94702
O         40.02846       69.31398       55.69970
H         35.83951       68.21852       57.98032
H         38.74849       67.59750       57.37320
H         36.92071       69.91934       56.49771
H         37.46757       68.55480       55.46838
H         38.19461       71.84196       56.17452
H         39.90224       71.79883       55.70253
N         37.43818       70.05296       59.31734
C         37.80351       71.00779       60.33958
C         36.52182       71.62299       60.94769
O         36.01633       70.73425       61.90393
H         36.47972       70.08279       58.95579
H         38.45466       71.74467       59.83403
H         38.37872       70.51769       61.14942
N         36.59246       72.96190       61.56478
C         37.82723       73.75822       61.41734
C         38.94493       73.12853       62.23395
O         39.99213       72.82966       61.67601
C         37.61735       75.23557       61.86967
C         36.67315       76.02478       60.95289
O         37.12985       75.29396       63.18572
H         35.77586       73.47394       61.16870
H         38.12942       73.81623       60.34843
H         38.61591       75.73252       61.80413
H         37.50148       76.11552       63.60103
H         36.63572       77.08338       61.28727
H         37.04366       76.00333       59.90636
H         35.63697       75.63318       60.98226
N         38.79413       72.91761       63.57287
C         39.86547       72.39172       64.41792
C         40.21823       70.95001       64.04751
O         39.41171       70.30402       63.39518
C         39.50229       72.51272       65.93544
C         38.24799       71.67065       66.30425
C         39.34520       73.99991       66.31147
C         37.89404       71.71779       67.78884
H         37.90171       73.19013       64.00070
H         40.74922       73.03302       64.21085
H         40.34757       72.12252       66.53881
H         38.43970       70.60726       66.04525
H         37.35472       72.00289       65.73800
H         39.20930       74.12640       67.40361
H         40.26612       74.55769       66.03790
H         38.48264       74.46679       65.79318
H         37.01845       71.06198       67.96824
H         38.74822       71.36399       68.40312
H         37.60566       72.74089       68.10352
N         41.39950       70.35009       64.39084
C         42.50188       70.99952       65.09849
C         42.86999       70.26429       66.37254
O         42.37482       69.17145       66.61428
C         43.71967       71.14282       64.15527
C         44.33325       69.85103       63.66494
O         43.88184       68.64821       64.07054
O         45.27129       69.89874       62.88610
H         41.53584       69.37613       64.08031
H         42.22468       72.02374       65.39743
H         44.51669       71.72305       64.66760
H         43.39324       71.72830       63.26813
N         43.74489       70.83907       67.24631
C         44.23516       70.18592       68.45652
C         43.76026       70.94243       69.69197
O         43.34932       72.08640       69.54132
C         45.78494       70.25788       68.43604
C         46.41737       69.77769       67.15229
C         46.32398       68.43602       66.75346
C         47.13153       70.68636       66.34665
C         46.94051       68.01136       65.57000
C         47.74131       70.25918       65.16604
C         47.64868       68.92156       64.77857
H         44.09064       71.78953       67.03841
H         43.87393       69.13743       68.49253
H         46.23685       69.70696       69.27966
H         46.06368       71.32786       68.57432
H         45.78389       67.72144       67.36081
H         47.21934       71.72836       66.63048
H         46.87260       66.97561       65.26599
H         48.28756       70.96623       64.55410
H         48.12543       68.59260       63.86436
N         43.86573       70.43937       70.96348
C         44.23319       69.08035       71.34756
C         43.19849       68.04833       70.94141
O         43.55796       67.03115       70.36550
C         44.30066       69.13713       72.88458
C         44.67067       70.58285       73.12801
C         43.74601       71.27935       72.13676
H         45.24269       68.83522       70.96627
H         43.28803       69.01145       73.33186
H         44.96908       68.37536       73.34036
H         44.56217       70.92052       74.17986
H         45.72607       70.73360       72.80215
H         42.69321       71.25562       72.49632
H         44.08111       72.32644       71.97240
N         41.88282       68.24130       71.25559
C         40.85744       67.22546       71.05761
C         41.09579       66.10251       72.06607
O         41.08290       66.41011       73.25083
C         39.44597       67.80580       71.31094
C         39.05481       68.87884       70.28479
C         37.66910       69.38514       70.56675
O         36.77766       69.22636       69.74862
O         37.40214       70.01503       71.72696
H         41.60842       69.13611       71.68875
H         40.87552       66.90105       70.00389
H         39.38885       68.22980       72.33891
H         38.70400       66.97902       71.23351
H         39.08879       68.43431       69.26536
H         39.76016       69.73581       70.31660
N         41.31693       64.79159       71.75156
C         41.37377       64.20777       70.42721
H         42.36660       63.73203       70.28731
H         40.59145       63.42460       70.34463
H         41.22449       64.92063       69.60376
H         41.45829       64.13373       72.53455
Ca        34.28164       69.46090       61.13180
O         34.45172       70.50537       64.48270
H         35.03109       69.96663       65.07788
H         34.81598       71.42397       64.54570
O         31.53549       69.85106       63.33894
H         30.77813       70.47151       63.19188
H         31.62771       69.80108       64.32361
O         33.19992       72.49265       61.99967
H         32.24336       72.72649       61.89715
H         33.51929       73.06947       62.73856
O         36.52437       67.25051       61.76545
H         36.69252       67.63970       60.87093
H         36.71116       67.99001       62.39698

Ca 1.0



