%chk=apoCaM-CA-Ng.loop3.water6.frame1160.chk
%nprocshared=20
%mem=10GB
%nosave
#b3lyp/svp scf=(tight,noincore,xqc) Test 
#IOP(5/87=12) Density=Current Pop=(MK,readradii) iop(6/33=2) iop(6/42=6)

apoCaM-CA-Ng.loop3.water6.frame1160 

   0  1 
C         87.19733       30.27037       64.47466
C         87.75033       29.09578       63.73125
O         88.37737       29.29703       62.70237
H         86.09226       30.18334       64.52653
H         87.61896       30.29736       65.49993
H         87.45525       31.21846       63.95320
N         87.55858       27.82885       64.20213
C         88.03060       26.64264       63.49576
C         86.87130       25.71377       63.15121
O         86.97738       24.50703       63.31937
C         89.18762       25.97064       64.26960
C         88.85162       25.46230       65.64921
O         87.72253       25.54372       66.10586
O         89.82408       24.90399       66.39414
H         87.04915       27.70879       65.08943
H         88.46260       26.94287       62.51626
H         90.00563       26.71697       64.37187
H         89.57883       25.12223       63.67228
N         85.74806       26.23700       62.58132
C         84.66249       25.46851       61.97554
C         85.20082       24.72782       60.76439
O         84.97902       23.53735       60.59250
C         83.88453       24.57139       62.96444
C         83.22098       25.38615       64.08455
C         82.27964       24.50288       64.92106
C         81.62175       25.24801       66.09669
N         80.78268       26.36733       65.66176
H         85.68948       27.26207       62.48053
H         83.93394       26.20395       61.56498
H         84.53820       23.78629       63.40102
H         83.07992       24.06471       62.38620
H         82.62657       26.20052       63.62034
H         84.00613       25.83272       64.73263
H         82.85840       23.65098       65.33960
H         81.48214       24.08903       64.26423
H         82.40531       25.61719       66.79374
H         80.98647       24.52048       66.65001
H         80.05425       26.03674       64.98807
H         80.30656       26.77714       66.49770
H         81.36282       27.11782       65.22467
N         85.96435       25.43170       59.88785
C         86.58113       24.91291       58.67968
C         88.07959       24.81179       58.91628
O         88.69710       25.77732       59.34180
C         86.20890       25.78295       57.44936
C         86.40769       27.26972       57.61967
O         85.70646       27.89678       58.39804
O         87.30902       27.93785       56.87951
H         86.17725       26.40475       60.13772
H         86.21220       23.88804       58.45586
H         85.13377       25.63159       57.20924
H         86.79975       25.42105       56.58063
N         88.72226       23.62992       58.68899
C         90.10769       23.37727       59.05106
C         90.18945       23.17419       60.54917
O         89.44845       22.33101       61.03536
H         88.19775       22.84913       58.26604
H         90.76927       24.16402       58.63611
H         90.41757       22.41232       58.59527
N         91.00678       23.87205       61.38753
C         92.00354       24.85885       60.99247
C         92.37719       25.68045       62.22241
O         92.89295       25.10301       63.17030
C         93.25276       24.13682       60.42088
C         94.39330       25.07138       60.07041
N         94.87523       25.13918       58.80842
O         94.91072       25.75278       60.94357
H         90.90590       23.66782       62.39483
H         91.57255       25.52508       60.22384
H         92.95691       23.55186       59.52513
H         93.63372       23.41234       61.17495
H         94.47302       24.56537       58.05419
H         95.66414       25.76565       58.58731
N         92.15553       27.02334       62.31872
C         91.53380       27.82825       61.27059
C         91.40664       29.29069       61.64971
O         91.78586       29.66465       62.75229
H         92.45247       27.47345       63.19783
H         90.51660       27.43788       61.05631
H         92.15667       27.76488       60.35133
N         90.91838       30.19759       60.74948
C         90.88605       31.62964       61.03619
C         89.55804       32.28879       60.65192
O         88.77521       31.71203       59.91095
C         92.05921       32.27795       60.27933
C         92.34654       33.69008       60.70966
C         92.18330       34.75430       59.81230
C         92.80660       33.94940       62.01260
C         92.47004       36.06174       60.21274
C         93.10141       35.25577       62.40835
C         92.93375       36.31754       61.50800
O         93.21942       37.58294       61.87348
H         90.67224       29.87175       59.80375
H         91.03408       31.77823       62.12731
H         91.84613       32.21824       59.18935
H         92.98792       31.69365       60.46557
H         91.83139       34.57193       58.80483
H         92.94982       33.13895       62.71746
H         92.33683       36.87560       59.51233
H         93.46408       35.43976       63.41202
H         93.55648       37.79921       62.75454
N         89.24281       33.51183       61.16962
C         87.99852       34.24527       60.89821
C         88.03375       34.92192       59.52394
O         89.11738       35.26226       59.07517
C         87.77918       35.31480       62.02730
C         88.83489       36.45927       61.96950
C         86.34937       35.88236       62.01039
C         88.79606       37.39363       63.17777
H         89.89239       33.88521       61.87453
H         87.16175       33.51615       60.96070
H         87.88882       34.77623       62.99584
H         88.69538       37.06303       61.04780
H         89.85822       36.03737       61.94061
H         85.62056       35.05991       62.10706
H         86.16567       36.54564       62.87761
H         86.14802       36.45472       61.08475
H         88.96072       36.81536       64.11155
H         89.60540       38.14744       63.08018
H         87.83561       37.94150       63.24299
N         86.88330       35.24089       58.84604
C         86.89757       36.10509       57.65372
C         85.57508       36.09803       56.87341
O         84.65345       35.38919       57.24041
C         87.26141       37.54545       58.08067
O         86.29383       38.06732       58.95090
H         85.98742       34.89889       59.21677
H         87.66599       35.72499       56.94652
H         87.39309       38.21744       57.20423
H         88.23988       37.56763       58.60029
H         85.59996       38.49480       58.38370
N         85.44973       36.86236       55.73786
C         84.28751       36.86674       54.84774
C         83.02160       37.35388       55.53859
O         82.07968       36.58536       55.68301
C         84.12043       35.48797       54.19245
H         86.24250       37.45221       55.45120
H         84.48523       37.57340       54.00973
H         83.29357       35.52088       53.45071
H         85.05459       35.21745       53.65496
H         83.89621       34.69893       54.93814
N         82.92897       38.64934       55.97147
C         81.76146       39.24343       56.63452
C         81.49369       38.67476       58.02306
O         80.55920       39.12745       58.67021
C         80.50370       39.13716       55.75368
H         83.73321       39.27248       55.79940
H         81.96967       40.32718       56.77686
H         79.65811       39.68386       56.22422
H         80.69363       39.58647       54.75690
H         80.17973       38.08531       55.61803
N         82.26640       37.68739       58.55114
C         82.03764       37.08583       59.85403
C         82.28204       38.11090       60.94566
O         81.42481       38.28511       61.80060
C         82.91187       35.81827       59.96047
C         82.58808       34.93843       61.17130
C         83.19006       33.56785       60.99494
O         84.39268       33.42472       60.86032
O         82.38907       32.48642       60.94257
H         83.05449       37.32293       58.00738
H         80.98447       36.72744       59.90195
H         83.99376       36.06829       59.92828
H         82.66861       35.21216       59.05772
H         81.48688       34.80678       61.24337
H         82.95090       35.41912       62.10414
N         83.39954       38.88932       60.92711
C         83.62768       39.94426       61.89149
H         84.55910       40.49518       61.63734
H         82.78323       40.66778       61.87141
H         83.72794       39.51660       62.90991
H         84.08873       38.76647       60.17342
Ca        87.49450       30.15397       57.29978
O         84.85023       31.43309       56.80386
H         84.46909       30.60684       56.41276
H         84.06676       32.01042       56.98417
O         88.75019       32.92893       56.89759
H         89.20196       32.84836       56.02079
H         89.49118       33.02418       57.54679
O         85.57124       30.64246       59.89312
H         86.08083       31.36015       60.34497
H         85.05105       30.21462       60.61855
O         88.07498       28.86624       59.93254
H         87.63879       28.17110       60.48375
H         88.71108       28.36977       59.36071
O         87.20193       30.57724       54.41271
H         87.98948       31.12730       54.65217
H         87.58394       29.70360       54.14631
O         90.38298       29.96554       57.08471
H         90.55209       29.07282       57.47851
H         91.14931       30.51944       57.37689

Ca 1.0



