%chk=apoCaM-CA-Ng.loop4.water3.frame211.chk
%nprocshared=20
%mem=10GB
%nosave
#b3lyp/svp scf=(tight,noincore,xqc) Test 
#IOP(5/87=12) Density=Current Pop=(MK,readradii) iop(6/33=2) iop(6/42=6)

apoCaM-CA-Ng.loop4.water3.frame211 

   -3  1 
C         39.38457       54.55727       70.81338
C         40.62603       55.36223       70.57782
O         41.65663       54.77553       70.29070
H         38.61134       54.84341       70.07041
H         39.59612       53.47087       70.70250
H         39.00340       54.74470       71.83809
N         40.58942       56.72532       70.65326
C         41.73373       57.59925       70.40104
C         42.24717       57.39190       68.98442
O         43.36868       56.96066       68.78006
C         42.77362       57.56991       71.55413
C         43.40940       56.25128       71.89219
O         44.12885       55.67955       71.09164
O         43.21720       55.71240       73.11201
H         39.68495       57.17550       70.86153
H         41.37370       58.65323       70.42604
H         42.24457       57.92443       72.46696
H         43.57718       58.30607       71.33428
N         41.41413       57.72202       67.95529
C         41.64909       57.59224       66.51758
C         42.83519       58.43228       66.04471
O         42.59647       59.49611       65.48988
C         41.67409       56.10984       66.05121
C         41.68710       55.96529       64.50564
C         40.49125       55.32514       66.64709
C         40.43902       56.48910       63.78122
H         40.49432       58.11265       68.21554
H         40.74366       58.04275       66.05535
H         42.59445       55.62752       66.43682
H         41.76771       54.88709       64.26856
H         42.58332       56.47224       64.08894
H         40.49824       54.28685       66.27139
H         40.56720       55.28306       67.75162
H         39.51811       55.78712       66.38601
H         40.30980       57.57985       63.92484
H         40.54126       56.30013       62.69220
H         39.52487       55.96114       64.12282
N         44.13099       58.02428       66.20099
C         45.27816       58.86020       65.85952
C         45.79825       58.60520       64.43701
O         45.79393       59.56452       63.67794
C         46.34741       58.76853       66.97047
C         47.51323       59.68174       66.71160
O         47.32160       61.01073       66.60631
O         48.64049       59.22485       66.60842
H         44.32044       57.10227       66.61079
H         44.95195       59.92605       65.87955
H         46.70864       57.73266       67.09427
H         45.88620       59.06125       67.93851
N         46.26271       57.41336       63.94873
C         46.29519       56.16640       64.69344
C         46.82888       54.98073       63.89722
O         47.16721       55.15048       62.73436
H         46.58884       57.41617       62.97020
H         45.25750       55.93278       64.97672
H         46.94573       56.29834       65.56378
N         46.92995       53.71498       64.41730
C         46.60304       53.28371       65.78016
C         45.14527       53.61108       66.07536
O         44.89768       54.48733       66.88764
C         47.63927       53.83646       66.79908
C         47.86773       52.98496       68.04498
O         48.97421       52.49369       68.20568
O         46.94562       52.76722       69.01088
H         47.26799       52.97609       63.77977
H         46.75245       52.18234       65.83030
H         47.43879       54.88249       67.08791
H         48.61872       53.82943       66.26791
N         44.10383       53.02604       65.40988
C         44.25192       51.97076       64.42192
C         43.75880       52.38184       63.06070
O         43.19444       53.45251       62.89341
H         43.14509       53.33676       65.62958
H         43.69249       51.07102       64.75423
H         45.30451       51.66902       64.30022
N         44.00656       51.55872       62.00808
C         43.60408       51.87049       60.64137
C         42.10232       51.74115       60.43266
O         41.61635       52.24422       59.42859
C         44.39361       51.00832       59.63245
C         44.13556       49.49208       59.76085
C         45.08831       48.71514       58.89092
N         44.63435       47.87593       57.93439
O         46.29228       48.82996       59.06883
H         44.57378       50.72172       62.19740
H         43.89678       52.92827       60.44713
H         45.47247       51.21191       59.81439
H         44.15949       51.33213       58.59415
H         43.07875       49.27162       59.49885
H         44.30473       49.13893       60.79609
H         43.62733       47.75028       57.77697
H         45.29605       47.33938       57.35486
N         41.31006       51.06076       61.31566
C         39.85904       50.94898       61.17774
C         39.38760       49.52105       60.92346
O         38.19718       49.36013       60.69657
C         39.14116       51.52980       62.43070
C         39.38908       53.03655       62.56602
C         39.54402       50.81122       63.73246
H         41.75427       50.59322       62.11738
H         39.51617       51.52676       60.29040
H         38.04477       51.39479       62.29495
H         39.03233       53.56333       61.65550
H         38.82740       53.43735       63.43708
H         40.46752       53.25255       62.70819
H         40.61461       50.97346       63.97694
H         38.94402       51.20725       64.57629
H         39.35475       49.71964       63.65858
N         40.22839       48.44369       60.93528
C         39.76326       47.08421       60.65519
C         39.91511       46.15349       61.84479
O         39.50110       45.00701       61.71109
C         40.53226       46.52580       59.44202
C         40.25280       47.32648       58.19571
N         39.00400       47.38388       57.67786
O         41.16229       47.92099       57.64023
H         41.22985       48.57376       61.13364
H         38.67821       47.07646       60.41990
H         40.23329       45.47367       59.24178
H         41.62240       46.53402       59.67018
H         38.22363       46.87828       58.12125
H         38.81811       47.92800       56.82276
N         40.45724       46.54267       63.03500
C         40.61037       45.62427       64.16770
C         41.12146       46.31126       65.41950
O         41.63973       47.41369       65.32958
C         41.56797       44.45424       63.79349
C         42.85573       44.94999       63.15393
C         43.09635       44.69284       61.79182
C         43.81109       45.68366       63.88041
C         44.25174       45.17337       61.16966
C         44.96725       46.16168       63.25769
C         45.19022       45.91312       61.90107
O         46.30603       46.38829       61.31277
H         40.76406       47.52078       63.14051
H         39.60302       45.22889       64.42925
H         41.04293       43.80157       63.06915
H         41.78701       43.80370       64.66729
H         42.38084       44.13329       61.20258
H         43.67262       45.89269       64.92668
H         44.41260       44.97427       60.11789
H         45.68888       46.73006       63.83148
H         46.49485       46.24066       60.37518
N         41.06048       45.64816       66.61454
C         41.61590       46.07771       67.89847
C         40.82812       47.20613       68.57109
O         40.35043       46.98683       69.67681
C         43.13135       46.32820       67.76777
C         43.86015       46.32632       69.12183
C         45.35903       46.41299       68.97083
O         45.88346       46.50922       67.87109
O         46.13693       46.35700       70.06801
H         40.63909       44.70502       66.60519
H         41.51812       45.19724       68.57600
H         43.33458       47.26884       67.21314
H         43.55059       45.47297       67.19343
H         43.63845       45.36897       69.64361
H         43.50445       47.16719       69.75255
N         40.63096       48.42389       67.98601
C         39.89491       49.51714       68.61658
C         38.43101       49.18213       68.89572
O         37.77424       49.98579       69.54552
C         39.88493       50.78391       67.72191
C         41.23088       51.28530       67.18369
C         42.23911       51.58704       68.24249
O         42.79244       50.67746       68.83862
O         42.61178       52.85666       68.47429
H         41.04215       48.60378       67.07656
H         40.40204       49.74743       69.57925
H         39.41158       51.61575       68.29030
H         39.25135       50.58066       66.83134
H         41.02049       52.20441       66.60942
H         41.68588       50.57987       66.45862
N         37.82733       48.06091       68.40708
C         36.42446       47.79101       68.63557
H         35.80825       48.60851       68.20258
H         36.13734       46.83636       68.14622
H         36.22295       47.71172       69.72457
H         38.35093       47.38704       67.83247
Ca        44.74581       53.18965       69.06799
O         43.59620       52.10957       71.57089
H         43.59524       52.21900       72.55434
H         43.69505       51.13488       71.42758
O         46.54139       56.11119       69.53363
H         47.45518       56.38344       69.26879
H         46.02687       56.95683       69.55163
O         46.40404       53.62202       72.04074
H         46.94494       52.87068       71.69031
H         46.55470       53.59814       73.01883

Ca 1.0



