%chk=apoCaM-CA-Ng.loop3.water5.frame330.chk
%nprocshared=20
%mem=10GB
%nosave
#b3lyp/svp scf=(tight,noincore,xqc) Test 
#IOP(5/87=12) Density=Current Pop=(MK,readradii) iop(6/33=2) iop(6/42=6)

apoCaM-CA-Ng.loop3.water5.frame330 

   0  1 
C         69.74028       38.93877       68.58573
C         70.61756       38.37749       67.50742
O         70.08682       37.81417       66.56572
H         68.66902       38.73629       68.36686
H         69.99932       38.46934       69.55759
H         69.88768       40.03646       68.65356
N         71.97426       38.53595       67.58299
C         72.98118       38.05116       66.63330
C         73.22491       36.54892       66.76048
O         74.32551       36.16448       67.12889
C         72.67748       38.49072       65.18405
C         73.83030       38.18553       64.26812
O         73.68121       37.43443       63.31849
O         75.03446       38.74739       64.48855
H         72.33292       39.08462       68.37997
H         73.93821       38.54236       66.92606
H         72.50056       39.58706       65.15958
H         71.76523       37.98564       64.80274
N         72.25124       35.64719       66.46488
C         72.37719       34.19427       66.57310
C         71.08983       33.57474       66.04614
O         70.41062       32.84446       66.75451
C         72.71324       33.75804       68.02815
C         71.81271       34.40225       69.10199
C         72.23978       33.96267       70.50963
C         71.46063       34.72427       71.59144
N         71.87581       34.30375       72.92986
H         71.35753       36.01089       66.12765
H         73.19559       33.84069       65.90833
H         73.75789       34.05749       68.25312
H         72.67917       32.64845       68.09937
H         70.74605       34.14038       68.93984
H         71.91660       35.50667       69.03642
H         73.32273       34.17453       70.64944
H         72.07350       32.86864       70.62011
H         70.36952       34.54585       71.47054
H         71.65255       35.81541       71.47887
H         71.35455       34.86384       73.64263
H         71.65954       33.29030       73.07044
H         72.90117       34.46666       73.05904
N         70.67541       33.90650       64.78826
C         69.38108       33.53272       64.23629
C         69.54895       32.79995       62.91274
O         70.65479       32.72685       62.39297
C         68.58275       34.84615       64.06927
C         67.16645       34.66390       63.61500
O         66.30068       33.95692       64.36528
O         66.78586       35.17846       62.57695
H         71.27265       34.53095       64.22239
H         68.84368       32.86248       64.94146
H         69.12632       35.50557       63.35707
H         68.54611       35.36881       65.04989
N         68.47290       32.21310       62.31232
C         68.54638       31.52824       61.03357
C         68.75084       32.45936       59.85318
O         68.85309       31.94848       58.74675
H         67.56622       32.20859       62.79868
H         67.59210       30.98828       60.85639
H         69.35999       30.77066       61.07110
N         68.83651       33.81728       59.98830
C         69.10613       34.69992       58.85938
C         69.58168       36.06403       59.34007
O         69.06702       37.08710       58.90665
C         67.89354       34.79159       57.89087
C         66.63371       35.35446       58.51396
N         65.53797       35.56201       57.75099
O         66.59489       35.63490       59.70175
H         68.77440       34.24104       60.92298
H         69.97502       34.28423       58.30285
H         67.65559       33.79029       57.47637
H         68.18050       35.44407       57.03741
H         65.54302       35.34223       56.74431
H         64.68653       35.95934       58.17173
N         70.62388       36.13941       60.21710
C         71.25310       37.39292       60.59230
C         70.36093       38.38982       61.30056
O         70.81736       39.51200       61.46813
H         71.04281       35.26692       60.57396
H         71.61977       37.86902       59.65739
H         72.13488       37.19120       61.23448
N         69.10298       38.08936       61.74264
C         68.20820       39.09668       62.30305
C         66.92434       39.12116       61.45283
O         66.28436       37.87688       61.39379
C         67.98204       38.84404       63.81245
C         67.23787       39.97247       64.50511
C         67.73692       41.28954       64.46116
C         66.05184       39.72433       65.21799
C         67.05536       42.33178       65.09491
C         65.37370       40.76923       65.85624
C         65.87268       42.07782       65.79317
O         65.23000       43.09559       66.40113
H         68.75283       37.12423       61.66504
H         68.67648       40.09610       62.20473
H         68.97960       38.77613       64.29616
H         67.47099       37.86830       63.95966
H         68.65357       41.51915       63.93507
H         65.65148       38.72347       65.29023
H         67.44958       43.33925       65.04381
H         64.46162       40.56066       66.40113
H         64.41082       42.96462       66.89939
N         66.01239       40.23186       61.77378
C         64.77847       40.29804       60.94688
C         64.98853       39.71468       59.55209
O         64.28876       38.76871       59.21894
C         64.21728       41.75548       60.92370
C         63.96054       42.31390       62.35413
C         62.94219       41.87982       60.06891
C         62.86325       41.59585       63.15215
H         66.57313       41.10080       61.61384
H         64.00863       39.66282       61.43257
H         64.98759       42.40758       60.45466
H         63.67263       43.38462       62.27208
H         64.90036       42.27570       62.94301
H         62.59106       42.93414       60.06104
H         63.13681       41.59146       59.02201
H         62.13063       41.22623       60.44664
H         61.87961       41.67979       62.64599
H         63.10695       40.52626       63.31084
H         62.76387       42.07346       64.14950
N         65.98806       40.14449       58.72797
C         66.28468       39.44125       57.48092
C         65.18686       39.58944       56.43709
O         65.14072       38.76633       55.53452
C         67.64276       39.85679       56.90287
O         67.62527       41.20932       56.54020
H         66.60781       40.90391       59.04909
H         66.37428       38.36061       57.73752
H         67.86233       39.22509       56.01161
H         68.42980       39.68377       57.67131
H         68.48641       41.37757       56.07652
N         64.27495       40.60924       56.49287
C         63.17058       40.81256       55.55150
C         62.08680       39.73252       55.62630
O         61.12510       39.82340       54.87516
C         63.70392       40.97398       54.11746
H         64.38289       41.31804       57.22931
H         62.67314       41.77157       55.81826
H         62.87745       41.24522       53.42741
H         64.46254       41.78494       54.08445
H         64.16480       40.04102       53.73555
N         62.16441       38.68621       56.49656
C         61.20075       37.59431       56.54715
C         59.83455       38.02265       57.04788
O         59.73686       38.54906       58.14797
C         61.71872       36.49249       57.47815
H         62.97003       38.62221       57.12640
H         61.12106       37.13862       55.53577
H         61.85819       36.87984       58.51005
H         61.00957       35.63934       57.50692
H         62.68826       36.11606       57.09765
N         58.72086       37.71148       56.31912
C         57.34221       37.82216       56.79828
C         56.85209       39.24703       57.02107
O         55.70104       39.39025       57.41243
C         57.13348       36.96192       58.07262
C         57.53392       35.49289       57.85496
C         57.30750       34.67852       59.09607
O         56.18410       34.55898       59.55865
O         58.34414       34.06459       59.69858
H         58.85022       37.25949       55.40113
H         56.67881       37.39474       56.01252
H         56.05832       36.99442       58.35681
H         57.71664       37.37648       58.92169
H         58.60894       35.43463       57.58650
H         56.94120       35.05616       57.02284
N         57.62312       40.34485       56.77359
C         57.15060       41.70162       56.97615
H         56.10921       41.74080       57.36160
H         57.80785       42.21478       57.70803
H         57.18201       42.25036       56.01216
H         58.58063       40.23909       56.41458
Ca        64.80594       37.66652       63.09018
O         62.42948       34.53881       63.05512
H         61.89670       33.93193       62.48210
H         61.78282       35.22593       63.35534
O         62.99495       37.40531       65.35984
H         63.49910       36.56777       65.19872
H         62.52510       37.58187       64.50570
O         63.01406       34.34416       59.75139
H         63.50046       33.83199       59.05751
H         62.05973       34.13609       59.59013
O         65.07764       33.02215       61.51589
H         65.57953       32.41376       60.91831
H         64.77150       32.44551       62.26010
O         61.93560       36.99614       61.23146
H         62.67331       37.57600       60.91883
H         61.27980       37.62207       61.62853

Ca 1.0



