%chk=apoCaM-CA-Ng.loop3.water3.frame639.chk
%nprocshared=20
%mem=10GB
%nosave
#b3lyp/svp scf=(tight,noincore,xqc) Test 
#IOP(5/87=12) Density=Current Pop=(MK,readradii) iop(6/33=2) iop(6/42=6)

apoCaM-CA-Ng.loop3.water3.frame639 

   0  1 
C         83.62829       44.32496      -11.22975
C         84.24433       44.92766      -12.45634
O         83.53433       45.60644      -13.18162
H         82.78919       43.65793      -11.51440
H         84.37155       43.74960      -10.64079
H         83.23448       45.14405      -10.58825
N         85.56684       44.74460      -12.74224
C         86.25140       45.42917      -13.83254
C         86.80091       44.43483      -14.84467
O         87.60009       43.58186      -14.48284
C         87.37224       46.30008      -13.22992
C         88.04397       47.20097      -14.22438
O         89.01132       48.03970      -13.80985
O         87.72730       47.18600      -15.40172
H         86.12953       44.13868      -12.12539
H         85.54634       46.11389      -14.34960
H         88.13624       45.65256      -12.74796
H         86.93569       46.95296      -12.44800
N         86.40062       44.49837      -16.14764
C         86.84918       43.56798      -17.18191
C         88.35046       43.62279      -17.45252
O         88.90000       42.60355      -17.84357
C         86.03842       43.74336      -18.49185
C         86.19298       45.12098      -19.17568
C         85.25225       45.29515      -20.38287
C         85.59081       44.37595      -21.56754
N         84.66604       44.60019      -22.67962
H         85.70407       45.21502      -16.39678
H         86.61470       42.54173      -16.81955
H         84.96461       43.59409      -18.24221
H         86.33818       42.94115      -19.19815
H         87.24470       45.28567      -19.49096
H         85.92388       45.92047      -18.45634
H         85.33214       46.34777      -20.73282
H         84.20265       45.12327      -20.05643
H         85.52802       43.30959      -21.26607
H         86.62963       44.58703      -21.90578
H         84.70378       45.59835      -22.98988
H         84.93789       43.98688      -23.48173
H         83.69068       44.35947      -22.38759
N         89.06019       44.78287      -17.33756
C         90.48718       44.89605      -17.64755
C         91.32816       45.40938      -16.47804
O         92.53447       45.49493      -16.65111
C         90.67752       45.75994      -18.91552
C         89.93663       47.06983      -18.89598
O         90.16729       47.98373      -17.94221
O         89.11210       47.30924      -19.76219
H         88.55952       45.63641      -17.06506
H         90.91749       43.89934      -17.88989
H         90.29934       45.17664      -19.78321
H         91.76044       45.94305      -19.08944
N         90.80638       45.70559      -15.25443
C         91.61477       46.11573      -14.10927
C         92.23315       47.51067      -14.17938
O         92.92028       47.85538      -13.22851
H         89.80664       45.54535      -15.08965
H         92.41834       45.36333      -13.95016
H         90.97107       46.10439      -13.20251
N         92.04006       48.37260      -15.22397
C         92.62008       49.71992      -15.28082
C         91.54938       50.80325      -15.38449
O         90.39771       50.51859      -15.67332
C         93.54677       49.87424      -16.51581
C         94.86667       49.14636      -16.41829
N         94.93373       47.80174      -16.32865
O         95.90310       49.79365      -16.44619
H         91.45941       48.06982      -16.00824
H         93.20147       49.93541      -14.35795
H         93.79788       50.95048      -16.64311
H         93.00150       49.55797      -17.43320
H         94.08275       47.23595      -16.31980
H         95.84611       47.32491      -16.27844
N         91.91708       52.10357      -15.17914
C         91.08843       53.28058      -15.40450
C         89.78042       53.28466      -14.65190
O         89.77856       53.08245      -13.44574
H         92.88635       52.28581      -14.87538
H         90.89870       53.38829      -16.49254
H         91.66899       54.17265      -15.08260
N         88.61971       53.57135      -15.31782
C         87.30266       53.59029      -14.68696
C         86.76492       52.13697      -14.62474
O         87.74035       51.29589      -14.09967
C         86.33313       54.50650      -15.48675
C         86.68703       55.97261      -15.44860
C         86.04729       56.81513      -14.51958
C         87.59792       56.52836      -16.36042
C         86.31595       58.18409      -14.50009
C         87.86132       57.90295      -16.34270
C         87.22173       58.73453      -15.41570
O         87.47763       60.05815      -15.41842
H         88.67931       53.79564      -16.32146
H         87.38369       53.99823      -13.65420
H         85.31795       54.46102      -15.06168
H         86.21380       54.16494      -16.53734
H         85.33441       56.41230      -13.80966
H         88.08727       55.90775      -17.09863
H         85.81191       58.81533      -13.77862
H         88.55553       58.32437      -17.05812
H         87.04468       60.66576      -14.80135
N         85.49738       52.00062      -13.88404
C         84.79850       50.69211      -13.93123
C         84.71751       50.07646      -15.37888
O         85.56273       48.96880      -15.55556
C         85.31938       49.70568      -12.84204
C         84.36315       48.49928      -12.64123
C         85.58494       50.40607      -11.49745
C         82.96957       48.83225      -12.08472
H         84.80794       52.67886      -14.26130
H         83.76229       50.94837      -13.62484
H         86.30251       49.30988      -13.17352
H         84.83412       47.78958      -11.92983
H         84.23521       47.97634      -13.60744
H         86.36907       51.18350      -11.61266
H         84.67088       50.89320      -11.10284
H         85.96070       49.67034      -10.75402
H         82.38808       47.89394      -11.97145
H         83.03951       49.30651      -11.08548
H         82.39163       49.49431      -12.75685
N         83.34090       49.76250      -15.80997
C         83.27457       48.89558      -17.01008
C         82.14071       49.28872      -17.93362
O         82.03158       48.68707      -18.99471
C         83.14954       47.40427      -16.62303
O         81.93674       47.17163      -15.95139
H         82.75613       49.37597      -15.03638
H         84.19676       49.03007      -17.61498
H         84.02019       47.09794      -16.00234
H         83.17574       46.76557      -17.53176
H         82.15226       46.76435      -15.07332
N         81.26774       50.29286      -17.62868
C         80.21395       50.70199      -18.55066
C         80.80620       51.25442      -19.84145
O         81.97867       51.60515      -19.84039
C         79.34645       51.77546      -17.89503
H         81.34801       50.77861      -16.72340
H         79.60150       49.80080      -18.77228
H         78.59813       52.15411      -18.60722
H         78.83627       51.35544      -17.00126
H         79.96855       52.64034      -17.58287
N         80.11497       51.31897      -21.01870
C         78.75161       50.84626      -21.24600
C         77.95512       51.86195      -22.05734
O         78.50594       52.39559      -23.01065
C         78.82373       49.54656      -22.04904
H         80.64042       51.64203      -21.84719
H         78.23585       50.58786      -20.30617
H         77.80010       49.15539      -22.23588
H         79.33231       49.70586      -23.02373
H         79.38675       48.78212      -21.47184
N         76.62637       52.11045      -21.86010
C         75.79991       51.47706      -20.84115
C         76.08206       52.09276      -19.48993
O         76.32213       51.35731      -18.54313
C         74.30555       51.59389      -21.20611
C         73.43666       50.72405      -20.27447
C         71.98866       50.66956      -20.67953
O         71.57596       51.28311      -21.65151
O         71.13617       49.90878      -19.96704
H         76.16053       52.73771      -22.53623
H         76.00513       50.38330      -20.83887
H         74.18294       51.20181      -22.24059
H         73.96826       52.65376      -21.18956
H         73.50295       51.10327      -19.23283
H         73.82109       49.68046      -20.29576
N         76.09319       53.44979      -19.34335
C         76.41948       54.12422      -18.10282
H         77.32712       54.74748      -18.25624
H         75.57962       54.78611      -17.80775
H         76.62380       53.41452      -17.27448
H         75.89785       54.04519      -20.16253
Ca        87.59514       49.86104      -15.77426
O         86.40934       49.11395      -19.03457
H         86.79884       48.24986      -19.31448
H         85.61227       49.21991      -19.61198
O         86.96467       51.88293      -18.01139
H         86.11373       52.16798      -18.42940
H         87.59118       52.62847      -18.18798
O         90.20172       50.92154      -18.70517
H         90.74554       51.65995      -18.33310
H         90.86863       50.28063      -19.05794

Ca 1.0



