%chk=apoCaM-CA-Ng.loop3.water5.frame302.chk
%nprocshared=20
%mem=10GB
%nosave
#b3lyp/svp scf=(tight,noincore,xqc) Test 
#IOP(5/87=12) Density=Current Pop=(MK,readradii) iop(6/33=2) iop(6/42=6)

apoCaM-CA-Ng.loop3.water5.frame302 

   0  1 
C         97.61844       35.12671       38.74281
C         98.83142       35.29231       39.61101
O         99.92279       34.97392       39.16267
H         96.69494       35.44985       39.26877
H         97.73167       35.73274       37.82030
H         97.50657       34.05674       38.46677
N         98.70935       35.77070       40.88260
C         99.81731       35.92527       41.81806
C        100.45747       34.57397       42.08911
O        101.65287       34.40000       41.89162
C        100.80734       37.00122       41.32413
C        101.85648       37.33692       42.34730
O        103.03974       37.19123       42.08505
O        101.49646       37.82462       43.54992
H         97.76921       36.02006       41.22685
H         99.39320       36.29273       42.77999
H        100.24088       37.93405       41.11490
H        101.30136       36.65788       40.39188
N         99.68516       33.55979       42.56670
C        100.22288       32.24761       42.91410
C        100.75480       31.48825       41.70726
O        101.48649       30.52851       41.90962
C         99.14142       31.37937       43.59014
C         98.64384       31.98871       44.91458
C         97.55660       31.14344       45.59533
C         96.23987       31.09949       44.79893
N         95.21681       30.35047       45.52718
H         98.68374       33.75279       42.71926
H        101.06153       32.40253       43.62994
H         99.55897       30.37244       43.81227
H         98.30370       31.26085       42.87095
H         98.24321       33.01298       44.76655
H         99.51220       32.06096       45.60474
H         97.34493       31.60593       46.58378
H         97.93537       30.11261       45.76728
H         96.39581       30.61790       43.81085
H         95.87718       32.13808       44.62898
H         94.33272       30.34589       44.96874
H         95.53106       29.36370       45.67314
H         95.02930       30.80250       46.45158
N        100.37827       31.79886       40.43242
C        100.82654       31.03190       39.26994
C        102.33966       31.18193       39.06927
O        102.96634       31.94561       39.79187
C         99.97708       31.45270       38.04533
C        100.20694       30.62228       36.82002
O        100.54950       31.15573       35.77818
O        100.02348       29.28773       36.86061
H         99.69928       32.56020       40.28970
H        100.60626       29.95889       39.46897
H        100.14844       32.52622       37.81636
H         98.90427       31.32281       38.31217
N        103.00109       30.44846       38.12768
C        104.44730       30.43678       37.97513
C        104.90968       31.03389       36.66746
O        106.07097       30.85038       36.33258
H        102.47756       29.81665       37.50995
H        104.77197       29.37523       38.02783
H        104.96681       30.98125       38.79220
N        104.09854       31.83729       35.92233
C        104.53508       32.50504       34.70244
C        104.74701       33.99534       34.95318
O        105.08635       34.69671       34.01075
C        103.50367       32.26014       33.57567
C        103.36085       30.78061       33.17460
N        104.61050       30.23787       32.65287
O        102.92748       30.00872       34.25469
H        103.14961       32.05353       36.26237
H        105.51998       32.11808       34.36044
H        103.81215       32.81863       32.66682
H        102.50906       32.64857       33.88627
H        104.91389       30.80976       31.83278
H        104.42259       29.27123       32.30229
N        104.62705       34.54604       36.20015
C        104.87447       35.94892       36.48922
C        103.88637       36.82811       35.77605
O        104.29944       37.70121       35.02782
H        104.37664       33.95585       37.00546
H        105.91846       36.21401       36.20727
H        104.76043       36.11949       37.58089
N        102.55001       36.62270       35.94484
C        101.52960       37.35875       35.21298
C        100.86985       36.40569       34.24788
O        100.35147       35.37259       34.64698
C        100.52074       38.02026       36.15640
C        101.17704       39.11324       36.96578
C        101.21168       39.02985       38.36060
C        101.75391       40.23054       36.33305
C        101.81996       40.03441       39.11937
C        102.36189       41.23574       37.08866
C        102.39796       41.14032       38.48665
O        102.97993       42.10372       39.22853
H        102.24397       35.85976       36.56863
H        101.99631       38.16660       34.61302
H        100.06691       37.24008       36.80760
H         99.70575       38.48460       35.56014
H        100.76345       38.18326       38.84882
H        101.73393       40.32875       35.25525
H        101.84042       39.95356       40.19867
H        102.80260       42.08739       36.58569
H        103.38666       42.88519       38.82739
N        100.95933       36.68212       32.92321
C        100.61646       35.76463       31.85464
C        101.93019       35.27745       31.26047
O        102.05921       34.07668       31.06487
C         99.66828       36.46061       30.83570
C         98.32675       36.89237       31.49592
C         99.39338       35.58324       29.59886
C         97.45783       35.73978       32.02440
H        101.38826       37.57640       32.64763
H        100.10177       34.85960       32.24216
H        100.17075       37.38471       30.47097
H         97.72559       37.45419       30.74790
H         98.53485       37.58558       32.33882
H         98.72521       36.12193       28.89239
H        100.32741       35.35402       29.05537
H         98.92799       34.61650       29.87542
H         96.52307       36.15125       32.45875
H         97.16681       35.04528       31.21001
H         97.97498       35.17115       32.82281
N        102.99554       36.11830       31.06134
C        104.28805       35.63111       30.59664
C        104.24331       35.29115       29.12491
O        105.20057       34.70058       28.64590
C        105.41413       36.65181       30.85814
O        105.61024       36.85166       32.23177
H        102.91378       37.11768       31.28815
H        104.54620       34.71342       31.17242
H        105.21678       37.62072       30.34839
H        106.36910       36.25370       30.45204
H        104.80756       37.31643       32.57667
N        103.16308       35.61124       28.34481
C        103.04373       35.23778       26.94447
C        103.10704       33.72505       26.77931
O        103.41668       33.26745       25.68638
C        104.11387       35.96746       26.11525
H        102.37572       36.13374       28.74577
H        102.06037       35.58455       26.55633
H        105.14184       35.66308       26.39654
H        103.97255       35.75550       25.03476
H        104.01710       37.06456       26.26524
N        102.84282       32.88413       27.82755
C        103.04824       31.44591       27.76744
C        101.77437       30.66482       27.99478
O        100.81821       31.18259       28.55837
C        104.07202       31.04976       28.83261
H        102.52167       33.27292       28.72517
H        103.44811       31.16023       26.77097
H        103.68443       31.31284       29.84177
H        104.27519       29.95896       28.80169
H        105.02418       31.59684       28.66871
N        101.70961       29.37997       27.53925
C        100.57970       28.47275       27.70297
C         99.29193       28.95481       27.03907
O         98.29128       28.26082       27.16342
C        100.37904       28.09309       29.18972
C        101.66807       27.47540       29.76863
C        101.44825       26.83252       31.10559
O        100.66653       25.90116       31.21571
O        102.16237       27.22970       32.17401
H        102.53223       29.00124       27.04428
H        100.83526       27.51918       27.18776
H         99.57353       27.32631       29.23068
H        100.05902       28.96227       29.80407
H        102.45092       28.26089       29.85157
H        102.03937       26.67991       29.08794
N         99.23027       30.08740       26.27988
C         98.00420       30.51320       25.64079
H         97.22525       30.71055       26.40729
H         98.18166       31.44626       25.06451
H         97.64835       29.72722       24.94100
H        100.06524       30.66443       26.11773
Ca       100.87160       29.20378       33.68931
O         98.49882       27.62292       32.53377
H         97.68470       27.99783       32.11415
H         98.38150       26.64217       32.47139
O        102.76763       27.50168       35.76858
H        103.69775       27.83842       35.81449
H        102.59021       27.13752       36.67170
O         99.88950       26.09696       35.22973
H         98.97426       25.80253       34.99303
H         99.99805       25.83006       36.17709
O         99.24400       31.19368       32.25791
H         98.60655       30.44203       32.16270
H         99.83840       31.11533       31.46992
O         97.71900       28.61764       35.25366
H         97.34023       27.79617       35.65598
H         97.32895       29.35745       35.78348

Ca 1.0



