%chk=apoCaM-CA-Ng.loop1.water3.frame1113.chk
%nprocshared=20
%mem=10GB
%nosave
#b3lyp/svp scf=(tight,noincore,xqc) Test 
#IOP(5/87=12) Density=Current Pop=(MK,readradii) iop(6/33=2) iop(6/42=6)

apoCaM-CA-Ng.loop1.water3.frame1113 

   0  1 
C         71.67505       69.29702       83.28374
C         71.15862       68.08282       82.57005
O         71.33211       68.00272       81.36223
H         72.76660       69.38907       83.10296
H         71.16640       70.20529       82.89630
H         71.50145       69.23095       84.37771
N         70.48745       67.10488       83.24810
C         69.97852       65.89369       82.60458
C         68.52058       66.04545       82.19746
O         67.70123       65.18781       82.50202
C         70.25136       64.64961       83.48821
C         69.54851       64.64463       84.83121
O         68.80805       65.55435       85.17311
O         69.73523       63.60564       85.66608
H         70.32492       67.24085       84.25557
H         70.52380       65.73960       81.65306
H         71.34473       64.57710       83.66944
H         69.93436       63.73915       82.93478
N         68.13108       67.13306       81.47934
C         66.76673       67.33563       81.01418
C         66.45076       66.40597       79.84571
O         65.48725       65.66528       79.96771
C         66.46472       68.81734       80.69285
C         66.79962       69.71510       81.90051
C         66.33203       71.15621       81.69781
C         66.81620       72.04039       82.85662
N         66.32402       73.40874       82.71432
H         68.82761       67.86428       81.29183
H         66.07525       67.10526       81.85841
H         65.37749       68.89645       80.46828
H         67.01896       69.18484       79.80674
H         67.89865       69.71694       82.05830
H         66.31355       69.31668       82.81898
H         65.22096       71.16909       81.64696
H         66.74202       71.55705       80.74584
H         67.93000       72.04912       82.86458
H         66.46478       71.62583       83.82792
H         66.62585       73.80902       81.79660
H         65.28023       73.41769       82.77954
H         66.71674       73.99443       83.48640
N         67.20088       66.31101       78.69922
C         68.43034       67.04519       78.40198
C         69.63916       66.12637       78.52809
O         69.47320       64.94025       78.78484
C         68.32544       67.77144       77.04643
C         68.00995       66.85618       75.90149
O         68.84865       65.85856       75.56921
O         66.98477       67.02390       75.26234
H         66.90822       65.59936       78.00974
H         68.60512       67.83506       79.14304
H         69.26864       68.31211       76.82880
H         67.51661       68.53165       77.12254
N         70.89927       66.64140       78.49426
C         72.07040       65.87045       78.88787
C         72.49921       64.80073       77.91497
O         71.96958       64.69967       76.82463
H         71.02192       67.65305       78.33052
H         71.87334       65.40754       79.87471
H         72.93571       66.55710       79.00748
N         73.49918       63.95323       78.29043
C         74.13222       62.96733       77.41294
C         75.65405       63.10424       77.53735
O         76.10458       63.74805       78.47317
C         73.71003       61.55410       77.86392
C         72.22947       61.34502       77.73071
O         71.70160       61.38571       76.63204
O         71.48149       61.08796       78.82054
H         73.83359       64.01717       79.26378
H         73.82092       63.13904       76.36048
H         74.00535       61.40893       78.92628
H         74.21204       60.77211       77.26341
N         76.55035       62.52461       76.68580
C         76.25462       61.85310       75.43651
C         75.73900       62.83032       74.40962
O         76.25421       63.93776       74.32559
H         77.55222       62.61988       76.91912
H         75.59753       60.96976       75.56420
H         77.21640       61.46933       75.03093
N         74.78551       62.44977       73.52215
C         74.30053       63.32174       72.45868
C         73.30735       64.32553       73.00532
O         72.41692       63.93586       73.74334
C         73.63816       62.49898       71.33255
C         74.66074       61.60587       70.62223
O         73.09111       63.37649       70.37976
H         74.44227       61.47683       73.56436
H         75.15226       63.85148       71.97354
H         72.84259       61.85716       71.77780
H         72.17092       63.06152       70.18816
H         75.46479       62.22916       70.17185
H         75.12238       60.88361       71.32598
H         74.16264       61.03916       69.80808
N         73.36042       65.62482       72.59055
C         72.39981       66.67339       72.92600
C         70.98364       66.31495       72.45862
O         70.39478       65.36745       72.95829
C         72.41121       67.04149       74.44065
C         73.83088       67.32349       75.00324
C         71.47200       68.23067       74.73354
C         74.55700       68.51742       74.37477
H         74.11866       65.89326       71.94483
H         72.72203       67.58810       72.38250
H         72.01719       66.17812       74.99935
H         74.46301       66.41961       74.87368
H         73.74860       67.50917       76.09777
H         70.42615       67.99089       74.45218
H         71.48245       68.47169       75.81758
H         71.77406       69.13431       74.16477
H         75.55223       68.63258       74.85391
H         74.71422       68.36084       73.28872
H         73.99715       69.46117       74.53671
N         70.33798       67.11989       71.57084
C         68.89732       67.02313       71.32510
C         68.44785       65.89266       70.39617
O         67.24471       65.69301       70.29225
C         68.36844       68.37946       70.77629
C         68.88640       68.69433       69.36197
O         68.74706       69.42663       71.63373
H         70.85080       67.94412       71.22680
H         68.40943       66.87268       72.31386
H         67.25658       68.34896       70.70988
H         68.22138       69.32301       72.46913
H         68.55683       67.91941       68.63849
H         68.48092       69.67096       69.02456
H         69.99368       68.75473       69.32987
N         69.31301       65.20863       69.59475
C         68.83455       64.34784       68.50512
C         68.29577       63.01085       68.99684
O         69.03736       62.25194       69.60337
C         69.92751       64.14174       67.42978
C         70.30065       65.47990       66.76968
O         71.06370       63.54431       67.99404
H         70.31614       65.43689       69.65189
H         68.01372       64.88192       67.97453
H         69.50721       63.47391       66.64140
H         71.65908       63.28789       67.24219
H         70.72526       66.19298       67.50642
H         71.05146       65.31404       65.96977
H         69.40072       65.94140       66.30861
N         67.00237       62.65087       68.72426
C         66.38652       61.37755       69.09940
C         66.40953       61.22649       70.60665
O         67.01370       60.29524       71.12278
C         67.03851       60.17604       68.36920
C         67.01086       60.33820       66.83887
C         67.49281       59.09033       66.07559
C         68.92879       58.66705       66.42526
N         69.36413       57.55275       65.58279
H         66.40358       63.31831       68.21487
H         65.31918       61.39551       68.78097
H         66.46869       59.25901       68.64053
H         68.08693       60.05004       68.70710
H         67.63989       61.20841       66.55171
H         65.96742       60.54125       66.51172
H         67.44170       59.32450       64.98951
H         66.80401       58.24054       66.27674
H         68.97745       58.34950       67.48940
H         69.61945       59.52599       66.27796
H         68.72118       56.73575       65.69823
H         69.38148       57.84856       64.57962
H         70.32925       57.26620       65.86545
N         65.78060       62.15738       71.37600
C         65.86297       62.18590       72.82898
C         66.58962       63.45721       73.25066
O         67.72146       63.31765       73.68568
C         64.48249       61.98746       73.48026
C         63.98256       60.54545       73.31772
C         62.62516       60.37864       73.93803
O         62.45197       59.52963       74.96896
O         61.67085       61.00620       73.50660
H         65.26357       62.90649       70.89663
H         66.50057       61.34792       73.18892
H         63.74134       62.66993       73.02280
H         64.56012       62.19769       74.57003
H         64.69961       59.85888       73.82045
H         63.92304       60.26930       72.24360
N         66.10441       64.72939       73.14881
C         64.76613       65.11396       72.76237
H         64.03688       64.74639       73.51103
H         64.68557       66.22175       72.76956
H         64.51631       64.76353       71.74556
H         66.74166       65.49582       73.40133
Ca        70.05362       63.22262       75.23269
O         68.28936       62.41184       77.45583
H         67.83736       63.09569       78.00937
H         69.13261       62.21579       77.93578
O         70.40130       61.87475       72.60155
H         69.82104       62.50296       72.10380
H         70.20315       60.98603       72.21395
O         68.46739       60.52041       75.08892
H         68.28333       59.96573       74.29013
H         67.58263       60.63905       75.51750

Ca 1.0



