%chk=apoCaM-CA-Ng.loop1.water4.frame33.chk
%nprocshared=20
%mem=10GB
%nosave
#b3lyp/svp scf=(tight,noincore,xqc) Test 
#IOP(5/87=12) Density=Current Pop=(MK,readradii) iop(6/33=2) iop(6/42=6)

apoCaM-CA-Ng.loop1.water4.frame33 

   0  1 
C         72.29240       51.67736       49.97704
C         71.54303       50.40102       49.90735
O         70.68911       50.25515       50.74264
H         73.25276       51.59915       49.44529
H         71.64725       52.46931       49.54764
H         72.48004       51.92821       51.04847
N         71.78259       49.44705       48.96158
C         71.04953       48.17081       48.88175
C         71.84675       46.96770       49.38945
O         71.24847       45.93548       49.64108
C         70.57928       47.85886       47.44089
C         71.70504       47.75473       46.48295
O         72.34032       48.88717       46.13477
O         71.98693       46.68445       45.96000
H         72.50020       49.67277       48.26397
H         70.12495       48.23944       49.47248
H         69.91213       48.65715       47.06447
H         70.03252       46.89207       47.41519
N         73.20118       46.98312       49.38810
C         74.05083       45.79221       49.43457
C         74.09136       45.04222       50.76409
O         74.22504       45.69178       51.79290
C         75.49300       46.22661       49.04786
C         75.65854       46.87455       47.64720
C         75.31529       46.00003       46.44822
C         75.64698       46.72610       45.12358
N         74.91776       47.98244       44.99493
H         73.65350       47.87743       49.17044
H         73.69296       45.08562       48.68594
H         76.19190       45.37294       49.12715
H         75.82270       46.99812       49.77677
H         76.72085       47.17195       47.53683
H         75.03088       47.77979       47.56414
H         74.23052       45.77628       46.48206
H         75.90119       45.05928       46.47879
H         75.37424       46.05273       44.28052
H         76.72866       46.94792       45.08267
H         75.34627       48.74195       45.57415
H         74.82121       48.30664       44.01026
H         73.97184       47.77103       45.30175
N         74.13913       43.66454       50.84634
C         73.88696       42.66789       49.78719
C         74.73438       42.79759       48.51007
O         74.14911       43.07944       47.47094
C         72.36423       42.64235       49.46601
C         71.52287       42.55891       50.71799
O         70.67486       43.57190       51.00590
O         71.63098       41.61541       51.48743
H         74.31118       43.26233       51.78344
H         74.11713       41.65923       50.18537
H         72.14189       41.80055       48.77799
H         72.07003       43.56583       48.93680
N         76.08468       42.57691       48.42981
C         76.96464       42.17249       49.52300
C         78.43660       42.10261       49.09499
O         78.81423       42.78098       48.15026
H         76.50140       42.69881       47.49455
H         76.65048       41.18820       49.92667
H         76.89727       42.93974       50.31194
N         79.38534       41.40194       49.77845
C         79.16775       40.59519       50.96086
C         78.50868       39.27080       50.62714
O         78.81443       38.64580       49.61518
C         80.51617       40.38653       51.65359
C         80.35372       39.86738       53.03746
O         80.69850       38.73234       53.31608
O         79.86753       40.68259       53.99293
H         80.36301       41.49633       49.46057
H         78.51891       41.15783       51.66856
H         81.02276       41.37352       51.76150
H         81.13638       39.70505       51.03490
N         77.53108       38.84465       51.47026
C         76.66039       37.71110       51.27355
C         75.30138       38.18265       50.79999
O         75.01460       39.37031       50.80443
H         77.33568       39.42566       52.29013
H         76.51025       37.19501       52.24966
H         77.09662       36.98646       50.55359
N         74.40950       37.26431       50.35583
C         73.05666       37.56211       49.86308
C         73.06263       38.48823       48.60841
O         72.21500       39.35064       48.42603
C         72.15451       38.02920       51.03706
C         72.29179       37.11956       52.27853
O         70.79770       38.00758       50.68188
H         74.71914       36.27885       50.37885
H         72.62914       36.60078       49.51056
H         72.45946       39.05730       51.32275
H         70.70832       38.29693       49.74553
H         71.75273       37.57877       53.13614
H         71.86127       36.11423       52.08419
H         73.34164       36.97067       52.60221
N         74.02946       38.29386       47.68016
C         74.22174       38.98968       46.39601
C         73.17416       38.63699       45.30945
O         73.31103       39.10618       44.18602
C         75.66025       38.67387       45.88193
C         75.84367       37.11426       45.69234
C         76.70302       39.37803       46.78434
C         77.15495       36.63365       45.10772
H         74.72469       37.61272       47.97145
H         74.16241       40.08972       46.56018
H         75.77816       39.18014       44.90429
H         75.07622       36.77462       44.97210
H         75.71561       36.52090       46.61850
H         76.52213       40.47938       46.78856
H         76.65970       39.03911       47.83824
H         77.72393       39.24798       46.37439
H         77.07019       35.54473       44.85938
H         77.34160       37.18237       44.17173
H         77.98016       36.76559       45.83615
N         72.09727       37.84806       45.60239
C         71.00522       37.41235       44.71554
C         70.39192       38.49470       43.80816
O         69.87079       38.12706       42.76671
C         69.85641       36.71257       45.56387
C         68.98528       37.72009       46.33087
O         70.39886       35.80640       46.49278
H         72.08512       37.45212       46.54037
H         71.46303       36.67022       44.02779
H         69.15981       36.15119       44.89329
H         69.69283       35.13273       46.68622
H         68.38924       38.31677       45.61051
H         68.26870       37.18272       46.99041
H         69.59967       38.39272       46.96346
N         70.35027       39.81591       44.15146
C         69.67172       40.87443       43.38645
C         68.14227       40.77489       43.34548
O         67.54992       39.74506       43.63880
C         70.25645       41.09073       41.96206
C         71.72290       41.47481       42.05172
O         69.60082       42.16763       41.33985
H         70.82152       40.11562       45.01928
H         69.85925       41.81519       43.94096
H         70.10816       40.17245       41.34890
H         69.84861       42.17935       40.37986
H         71.80475       42.30830       42.77923
H         72.37414       40.63029       42.34691
H         72.04929       41.85417       41.06467
N         67.45378       41.90912       43.00859
C         66.00489       42.02788       42.85227
C         65.34614       42.94650       43.89676
O         64.12270       43.01241       43.91418
C         65.70756       42.59705       41.45200
C         66.11353       41.63242       40.32798
C         65.97034       42.30754       38.96758
C         66.41747       41.36652       37.84852
N         66.29490       42.02848       36.54453
H         68.01388       42.75507       42.84007
H         65.54316       41.02548       42.96545
H         66.23446       43.57897       41.35281
H         64.62180       42.79399       41.34620
H         65.47226       40.72456       40.38034
H         67.17278       41.31906       40.42459
H         66.65206       43.18356       38.95124
H         64.92698       42.66031       38.80954
H         65.83559       40.41262       37.85263
H         67.48139       41.11523       38.05449
H         65.29653       42.25428       36.34127
H         66.82980       42.92812       36.53571
H         66.64164       41.39538       35.78774
N         66.07670       43.66209       44.80295
C         65.49544       44.43655       45.90650
C         65.06713       45.82618       45.46307
O         65.89406       46.72402       45.37128
C         66.45851       44.40906       47.13742
C         66.09990       45.35856       48.29438
C         67.03234       45.13450       49.47094
O         67.03626       44.04235       50.01534
O         67.86319       46.09148       49.94961
H         67.09784       43.59848       44.74352
H         64.56772       43.93243       46.24975
H         67.49621       44.65911       46.82623
H         66.47123       43.36854       47.52960
H         65.05637       45.17660       48.63361
H         66.18532       46.39690       47.91791
N         63.75311       46.05803       45.16948
C         63.22304       47.35704       44.81404
H         62.27824       47.54169       45.37376
H         63.93364       48.16972       45.06404
H         62.99865       47.37819       43.72885
H         63.09250       45.26610       45.16085
Ca        69.24767       45.26034       51.57496
O         66.88364       46.29679       52.89788
H         66.22747       45.81817       53.45900
H         66.68465       47.24994       53.06477
O         71.43127       46.85608       52.71152
H         71.06577       47.17362       53.57469
H         72.12404       47.52159       52.47503
O         68.28253       43.16066       53.18905
H         67.89366       42.44764       52.62366
H         68.09675       42.87584       54.11758
O         68.86473       48.04004       51.74833
H         68.14000       48.56026       52.15338
H         69.50173       48.74995       51.60606

Ca 1.0



