%chk=apoCaM-CA-Ng.loop2.water2.frame942.chk
%nprocshared=20
%mem=10GB
%nosave
#b3lyp/svp scf=(tight,noincore,xqc) Test 
#IOP(5/87=12) Density=Current Pop=(MK,readradii) iop(6/33=2) iop(6/42=6)

apoCaM-CA-Ng.loop2.water2.frame942 

   -2  1 
C        -14.92547       -4.04806       65.17520
C        -15.59376       -5.05257       66.07001
O        -15.69316       -6.20951       65.68764
H        -13.88159       -4.36891       64.97328
H        -15.47654       -3.97527       64.21492
H        -14.89567       -3.04124       65.64340
N        -16.07020       -4.68095       67.29135
C        -16.69345       -5.61342       68.22662
C        -15.70770       -6.71036       68.59257
O        -16.03583       -7.87941       68.45656
C        -17.16139       -4.85650       69.48858
C        -17.89211       -5.75663       70.44599
O        -18.91448       -6.32564       70.09695
O        -17.42871       -5.92909       71.69832
H        -15.97127       -3.69251       67.57241
H        -17.59519       -6.05835       67.74795
H        -17.85410       -4.03976       69.18942
H        -16.28919       -4.39541       70.00151
N        -14.45908       -6.37634       69.02372
C        -13.39378       -7.32458       69.34991
C        -12.14585       -6.52021       69.68709
O        -11.72137       -5.75916       68.82685
C        -13.06787       -8.24652       68.16095
H        -14.25029       -5.36785       69.09950
H        -13.72286       -7.96435       70.19089
H        -12.77527       -7.65514       67.26728
H        -12.23214       -8.92715       68.43113
H        -13.92862       -8.88821       67.88905
N        -11.48795       -6.56396       70.87972
C        -11.74957       -7.48184       71.98739
C        -11.28298       -6.87933       73.31294
O        -10.67589       -5.81796       73.32633
C        -11.06174       -8.85099       71.72449
C         -9.63928       -8.66137       71.25950
O         -8.58216       -9.00851       72.01084
O         -9.42990       -8.13316       70.17824
H        -10.66265       -5.94803       70.95778
H        -12.84223       -7.60723       72.12849
H        -11.59603       -9.40439       70.92308
H        -11.09973       -9.47461       72.64349
N        -11.62862       -7.48111       74.48763
C        -11.33664       -6.91690       75.79770
C        -10.91000       -7.99396       76.77270
O        -11.68090       -8.26523       77.68262
H        -12.22586       -8.32182       74.45153
H        -12.29195       -6.49103       76.17675
H        -10.60905       -6.08138       75.76053
N         -9.74629       -8.69970       76.67873
C         -8.68786       -8.46047       75.70578
C         -7.91295       -7.20938       76.10649
O         -7.30883       -7.20230       77.17080
C         -7.76811       -9.70723       75.66884
C         -6.67510       -9.68584       74.63318
N         -5.85360      -10.75244       74.50679
O         -6.52852       -8.72480       73.89868
H         -9.61501       -9.46728       77.35793
H         -9.14245       -8.36206       74.69724
H         -8.40581      -10.59124       75.44602
H         -7.30585       -9.85905       76.66885
H         -5.96757      -11.57768       75.11354
H         -5.10658      -10.75746       73.79777
N         -7.93026       -6.09334       75.32518
C         -7.31682       -4.83327       75.72239
C         -5.83238       -4.73282       75.43038
O         -5.26290       -3.69778       75.74368
H         -8.50188       -6.10137       74.47209
H         -7.52696       -4.63671       76.79670
H         -7.79533       -4.01367       75.14406
N         -5.14751       -5.72483       74.79448
C         -3.73927       -5.62499       74.41357
C         -3.61013       -5.71473       72.89880
O         -4.60855       -5.89620       72.21840
C         -2.92841       -6.75892       75.09151
C         -2.96996       -6.65930       76.61704
O         -3.42967       -8.00951       74.69063
H         -5.64398       -6.58212       74.53143
H         -3.30902       -4.64820       74.72525
H         -1.86091       -6.65931       74.78516
H         -2.66281       -8.63982       74.66672
H         -4.00960       -6.76296       76.99242
H         -2.35229       -7.47013       77.05925
H         -2.55632       -5.68300       76.94758
N         -2.38363       -5.62982       72.30840
C         -2.15775       -5.84882       70.88445
C         -1.37595       -7.13677       70.77081
O         -0.28900       -7.22275       71.32568
C         -1.40412       -4.65002       70.23697
C         -1.08020       -4.94912       68.74434
C         -2.24945       -3.36986       70.37503
C         -0.24083       -3.86869       68.05940
H         -1.55595       -5.47209       72.90223
H         -3.12011       -5.97258       70.34260
H         -0.44472       -4.50054       70.78118
H         -2.02045       -5.09739       68.17078
H         -0.48664       -5.88589       68.67858
H         -1.70872       -2.48525       69.98367
H         -3.20984       -3.47730       69.82575
H         -2.47125       -3.16033       71.44206
H          0.71481       -3.72019       68.60592
H         -0.00661       -4.18992       67.02194
H         -0.78570       -2.90607       67.99549
N         -1.88624       -8.18915       70.07046
C         -1.21513       -9.47793       69.97760
C         -0.71004       -9.74076       68.56870
O         -0.03114      -10.74359       68.38559
C         -2.16139      -10.60334       70.44445
C         -2.67638      -10.38222       71.84200
O         -2.39417      -11.26889       72.81516
O         -3.37804       -9.41549       72.09490
H         -2.79002       -8.07993       69.58861
H         -0.31683       -9.48728       70.63378
H         -1.61277      -11.57006       70.41402
H         -3.03279      -10.67561       69.75764
N         -0.96642       -8.89197       67.52725
C         -0.38198       -9.06944       66.20407
C         -0.97449       -8.07125       65.20785
O         -0.81282       -6.87455       65.41601
C          1.15189       -8.84974       66.28086
C          1.78834       -8.80362       64.91110
C          2.39006       -7.61411       64.46271
C          1.75920       -9.92095       64.06160
C          2.94157       -7.54090       63.18235
C          2.31135       -9.84279       62.77886
C          2.89969       -8.65323       62.33912
H         -1.58363       -8.07982       67.67064
H         -0.58387      -10.10331       65.86079
H          1.64198       -9.63622       66.89116
H          1.32668       -7.87846       66.79597
H          2.42025       -6.73729       65.09825
H          1.30001      -10.84546       64.38756
H          3.39470       -6.61835       62.84303
H          2.27818      -10.70252       62.12292
H          3.32189       -8.59162       61.34485
N         -1.61855       -8.47570       64.06639
C         -2.02647       -7.56963       63.00247
C         -3.29381       -6.79217       63.31951
O         -3.73663       -6.04196       62.46090
C         -2.20857       -8.51130       61.80689
C         -2.76760       -9.75056       62.46932
C         -1.88335       -9.85802       63.70746
H         -1.21902       -6.84688       62.74917
H         -2.79872       -8.10123       60.96009
H         -1.19749       -8.78435       61.42355
H         -3.80713       -9.51337       62.79176
H         -2.78935      -10.66722       61.84272
H         -2.43247      -10.41647       64.49663
H         -0.92029      -10.35665       63.47384
N         -3.93091       -6.90362       64.51979
C         -5.15025       -6.16702       64.84373
C         -4.96971       -4.65228       64.85434
O         -5.96966       -3.95791       64.98005
C         -5.72161       -6.67167       66.18425
C         -4.81988       -6.37930       67.40349
C         -5.29939       -7.18228       68.57298
O         -5.30643       -8.40008       68.50188
O         -5.73932       -6.59351       69.69491
H         -3.56654       -7.57132       65.21067
H         -5.89830       -6.41337       64.05680
H         -5.85096       -7.77121       66.06938
H         -6.72939       -6.23732       66.36914
H         -4.83334       -5.29024       67.62871
H         -3.76921       -6.67919       67.21906
N         -3.74830       -4.05873       64.72056
C         -3.59630       -2.62133       64.67386
H         -2.52340       -2.35837       64.55579
H         -4.15574       -2.21218       63.80492
H         -3.97727       -2.16532       65.61129
H         -2.89238       -4.62454       64.64534
Ca        -6.75287       -7.98741       71.15489
O         -6.70790      -10.79953       69.41706
H         -7.52429      -10.42348       69.00132
H         -6.09451      -10.96142       68.65645
O         -7.56497       -5.05266       72.12233
H         -8.17325       -5.83220       72.07821
H         -7.49848       -4.73993       71.18575

Ca 1.0



