%chk=apoCaM-CA-Ng.loop3.water4.frame146.chk
%nprocshared=20
%mem=10GB
%nosave
#b3lyp/svp scf=(tight,noincore,xqc) Test 
#IOP(5/87=12) Density=Current Pop=(MK,readradii) iop(6/33=2) iop(6/42=6)

apoCaM-CA-Ng.loop3.water4.frame146 

   0  1 
C         51.23039       26.80230       91.22005
C         51.38478       25.31035       91.16180
O         50.93422       24.63162       92.07256
H         50.15290       27.06301       91.26795
H         51.74600       27.19724       92.11971
H         51.66908       27.28970       90.32278
N         52.03144       24.73138       90.11198
C         52.23804       23.29901       89.94749
C         53.02631       22.72874       91.11972
O         52.60731       21.74199       91.71048
C         50.88168       22.58653       89.69907
C         50.99539       21.14356       89.27002
O         49.87280       20.44027       89.02841
O         52.08166       20.60570       89.11970
H         52.41910       25.34217       89.37616
H         52.85541       23.16658       89.03022
H         50.34488       23.12126       88.88626
H         50.25675       22.63781       90.61599
N         54.18954       23.32232       91.51661
C         55.03928       22.78162       92.57372
C         55.01792       23.71148       93.77197
O         56.05593       24.17434       94.22662
C         56.45990       22.56187       92.01290
C         56.43990       21.65153       90.77519
C         57.84544       21.47263       90.19066
C         57.86232       20.56639       88.94667
N         57.11405       21.13680       87.82259
H         54.49387       24.18805       91.04439
H         54.64910       21.80328       92.93001
H         57.10624       22.11386       92.79913
H         56.88825       23.54735       91.72079
H         55.79122       22.11793       90.00661
H         56.01828       20.66049       91.05048
H         58.49366       21.01071       90.96661
H         58.27355       22.46425       89.92434
H         57.45188       19.56461       89.20233
H         58.92188       20.43409       88.63575
H         56.09285       21.18564       88.03542
H         57.47783       22.08989       87.59154
H         57.23585       20.51999       86.98741
N         53.81860       24.04403       94.31938
C         53.66958       24.97094       95.42894
C         53.99207       24.29933       96.75574
O         53.52524       23.19613       97.00272
C         52.23499       25.52454       95.43833
C         52.08442       26.61482       96.45265
O         51.17445       26.49568       97.42717
O         52.78216       27.61457       96.39538
H         52.96440       23.67848       93.87050
H         54.32465       25.85503       95.25310
H         51.50358       24.71009       95.63328
H         52.01004       25.96640       94.44359
N         54.72082       24.96413       97.69342
C         55.03569       24.44547       99.01610
C         53.81114       24.06323       99.82593
O         53.80534       22.98132      100.39574
H         55.05454       25.91504       97.47309
H         55.57464       25.24217       99.57442
H         55.72012       23.57302       98.93508
N         52.73903       24.90004       99.92486
C         51.57169       24.62351      100.76512
C         50.31532       24.27695       99.96171
O         49.24802       24.19018      100.55428
C         51.33190       25.77519      101.77014
C         50.96232       27.12917      101.14541
N         50.45315       28.02737      102.17297
O         52.09408       27.70919      100.56394
H         52.75363       25.76338       99.36683
H         51.75541       23.72887      101.39925
H         52.22501       25.90811      102.42056
H         50.49618       25.45804      102.43155
H         49.60877       27.60085      102.61694
H         50.11866       28.88778      101.69386
N         50.37787       23.94905       98.63852
C         49.23443       23.47524       97.86345
C         48.23330       24.54456       97.46523
O         47.30785       24.21205       96.73709
H         51.29339       23.93056       98.17152
H         48.72766       22.64699       98.40591
H         49.62414       23.05955       96.90986
N         48.33855       25.83390       97.88190
C         47.44576       26.91139       97.45303
C         47.58560       28.12276       98.35352
O         48.53021       28.21600       99.12905
C         47.78089       27.35679       96.00369
C         47.18745       26.49423       94.92432
C         45.79833       26.52048       94.72090
C         47.99261       25.70789       94.08292
C         45.21974       25.77749       93.69089
C         47.40813       24.95142       93.05947
C         46.01892       24.98919       92.85798
O         45.44173       24.27976       91.86734
H         49.07920       26.05387       98.55667
H         46.38862       26.58644       97.57712
H         48.88776       27.41860       95.91426
H         47.39071       28.37893       95.80005
H         45.16645       27.13835       95.34766
H         49.06664       25.67710       94.21924
H         44.14885       25.82203       93.53650
H         48.03419       24.34332       92.41877
H         45.95481       23.72453       91.26361
N         46.62712       29.09188       98.32719
C         46.68201       30.25875       99.19716
C         46.74148       29.77371      100.63687
O         47.75309       30.00453      101.27506
C         45.50629       31.25072       98.94083
C         45.39749       31.70346       97.45438
C         45.62335       32.48721       99.85345
C         46.64165       32.39943       96.89107
H         45.82785       28.96513       97.68835
H         47.62525       30.80133       98.97455
H         44.54961       30.74020       99.18962
H         44.53284       32.39540       97.35576
H         45.17507       30.83520       96.80265
H         44.76989       33.17642       99.67963
H         45.60405       32.19977      100.91871
H         46.57248       33.03336       99.67799
H         46.45213       32.68590       95.83548
H         46.87994       33.32320       97.45516
H         47.51792       31.71976       96.90277
N         45.74558       29.01735      101.18487
C         45.88837       28.40373      102.50588
C         46.03009       29.41972      103.62767
O         46.57803       29.05931      104.65992
C         44.71908       27.45484      102.81658
O         44.60141       26.46792      101.82689
H         44.90988       28.81006      100.61778
H         46.81921       27.79203      102.48200
H         43.76860       28.02878      102.85771
H         44.85257       26.97401      103.81355
H         45.32667       25.81022      101.99195
N         45.55432       30.69569      103.50802
C         45.65528       31.72464      104.54261
C         47.08910       32.17370      104.83112
O         47.26030       32.99908      105.71745
C         44.93077       31.27788      105.82377
H         45.05390       30.95229      102.64764
H         45.11593       32.62851      104.18093
H         44.91185       32.10753      106.56213
H         43.87948       31.00877      105.58546
H         45.42214       30.40931      106.30484
N         48.15831       31.72421      104.10742
C         49.53746       32.13430      104.34900
C         50.10352       32.88998      103.15635
O         49.42068       33.04524      102.15433
C         50.37662       30.88810      104.64301
H         48.00609       31.06970      103.33799
H         49.59415       32.81313      105.22667
H         50.35938       30.20322      103.77066
H         51.43107       31.15438      104.86190
H         49.96100       30.35178      105.52204
N         51.34898       33.44601      103.23787
C         51.98464       34.25143      102.19623
C         51.05812       35.37500      101.76350
O         50.76538       35.50590      100.58158
C         52.46848       33.39877      100.99931
C         53.42833       32.27769      101.42810
C         53.95751       31.53027      100.23742
O         54.61174       32.11284       99.38695
O         53.73632       30.20836      100.11509
H         51.86435       33.35068      104.12577
H         52.89620       34.71283      102.63792
H         53.00434       34.07195      100.29281
H         51.60612       32.96985      100.45703
H         52.89755       31.56873      102.09980
H         54.29095       32.70927      101.97927
N         50.52630       36.20692      102.69980
C         49.59001       37.26590      102.38401
H         48.63072       37.07009      102.90769
H         50.00133       38.23588      102.72942
H         49.38078       37.33846      101.29568
H         50.77355       36.06873      103.69124
Ca        51.39162       28.89463       98.74551
O         50.78622       31.98127       97.53597
H         51.53995       32.59470       97.34822
H         50.11122       32.19349       96.84381
O         50.43823       29.58114       95.73130
H         49.58560       29.84883       95.30538
H         51.03135       29.34566       94.97455
O         53.48446       30.55068       96.75563
H         54.37440       30.48354       97.18352
H         53.62588       30.20945       95.83721
O         50.22911       30.91621      100.15597
H         50.61319       30.98879      101.06479
H         49.52539       31.60838      100.11523

Ca 1.0



