%chk=apoCaM-CA-Ng.loop2.water4.frame1115.chk
%nprocshared=20
%mem=10GB
%nosave
#b3lyp/svp scf=(tight,noincore,xqc) Test 
#IOP(5/87=12) Density=Current Pop=(MK,readradii) iop(6/33=2) iop(6/42=6)

apoCaM-CA-Ng.loop2.water4.frame1115 

   -2  1 
C         62.13150       50.88699       70.32794
C         63.63380       51.03142       70.36249
O         64.09342       51.84252       71.15294
H         61.67455       51.85852       70.04787
H         61.74355       50.11387       69.64513
H         61.77974       50.61112       71.34484
N         64.50239       50.29819       69.60258
C         64.13918       49.28984       68.60874
C         65.02337       49.40596       67.36758
O         65.80933       50.34013       67.27901
C         64.13343       47.89367       69.26136
C         65.47876       47.41601       69.70597
O         65.92590       46.37844       69.24694
O         66.17512       48.09156       70.63994
H         65.50954       50.43723       69.78485
H         63.11048       49.45012       68.24072
H         63.71101       47.15687       68.54598
H         63.45497       47.91090       70.14133
N         64.92459       48.49568       66.35058
C         65.62199       48.59151       65.06758
C         67.14955       48.59305       65.14042
O         67.75534       48.73834       64.08682
C         65.12905       49.83903       64.31558
H         64.27089       47.70711       66.45615
H         65.32799       47.71449       64.44864
H         64.02309       49.80707       64.21776
H         65.41460       50.77335       64.84103
H         65.56005       49.87212       63.29205
N         67.85036       48.45854       66.30608
C         69.30142       48.62697       66.37601
C         70.00291       47.36619       66.83540
O         69.35909       46.33511       66.96839
C         69.60874       49.89506       67.21409
C         69.22880       50.00645       68.67998
O         68.79552       49.00315       69.47529
O         69.35018       51.10691       69.19421
H         67.35300       48.28515       67.18980
H         69.72543       48.84667       65.37201
H         69.06597       50.71744       66.69634
H         70.68702       50.14594       67.13986
N         71.33833       47.38462       67.10996
C         72.03832       46.27724       67.73654
C         72.31124       46.70912       69.14736
O         71.35354       47.02744       69.83812
H         71.86630       48.26145       66.98925
H         72.96593       46.04544       67.16937
H         71.41561       45.35821       67.77327
N         73.56991       46.80820       69.65473
C         73.78059       47.42226       70.96368
C         73.41695       48.90500       70.90485
O         73.13263       49.42681       69.83424
C         75.23082       47.22493       71.45292
C         75.51159       45.77517       71.76631
N         74.83077       45.14082       72.75288
O         76.37239       45.17450       71.14179
H         74.37519       46.49030       69.09290
H         73.09863       46.94092       71.69874
H         75.40692       47.79118       72.39164
H         75.93602       47.61036       70.68397
H         74.11548       45.63544       73.30662
H         75.02582       44.15418       72.97779
N         73.38156       49.63633       72.04983
C         72.99810       51.03915       72.11636
C         74.14519       51.87079       72.64269
O         75.24556       51.34656       72.75311
H         73.61909       49.17237       72.93985
H         72.13765       51.10235       72.81473
H         72.68055       51.44650       71.13198
N         74.00210       53.16466       73.05063
C         72.75363       53.92151       73.09768
C         72.96803       55.30163       72.48539
O         73.93597       55.95728       72.84673
C         72.32837       54.04909       74.58187
C         71.03119       54.84651       74.74817
O         72.11752       52.76813       75.12216
H         74.83661       53.61785       73.45653
H         71.92825       53.39621       72.57097
H         73.11896       54.58080       75.16313
H         72.99389       52.43656       75.44980
H         70.75635       54.89096       75.82340
H         71.15589       55.88724       74.38439
H         70.20257       54.36190       74.18857
N         72.05702       55.83974       71.61826
C         72.18785       57.18987       71.04980
C         71.15398       58.12944       71.68477
O         70.23034       57.62456       72.30762
C         72.08045       57.13710       69.48987
C         70.65991       56.72191       69.01643
C         73.17553       56.21543       68.92330
C         70.48261       56.76261       67.49787
H         71.21155       55.29165       71.40439
H         73.18499       57.59313       71.32049
H         72.26440       58.14613       69.07877
H         69.92266       57.43620       69.44258
H         70.40003       55.70268       69.36783
H         74.17454       56.55371       69.27126
H         73.01923       55.16509       69.24926
H         73.19141       56.24445       67.81542
H         70.73806       57.76621       67.10335
H         71.11497       56.00348       66.99679
H         69.42381       56.54182       67.24603
N         71.22823       59.50002       71.64719
C         72.35237       60.28091       71.13279
C         71.91596       61.64131       70.58411
O         70.76416       62.02920       70.73223
C         73.39455       60.47525       72.26384
C         72.83496       61.18258       73.47325
O         72.41296       62.32491       73.38695
O         72.81440       60.55789       74.66614
H         70.51377       60.01044       72.19139
H         72.85209       59.74559       70.31021
H         74.27109       61.04662       71.89157
H         73.76584       59.47932       72.58420
N         72.84205       62.44333       69.98603
C         72.63135       63.83919       69.61019
C         72.91488       64.04046       68.12650
O         73.93405       63.52846       67.67729
C         73.58567       64.67707       70.49039
C         73.46902       66.17137       70.29622
C         73.95827       66.79317       69.13242
C         72.88773       66.96560       71.30036
C         73.85537       68.17766       68.97395
C         72.78459       68.34955       71.13626
C         73.26732       68.95516       69.97394
H         73.79491       62.06606       69.85886
H         71.61074       64.16856       69.86856
H         74.64514       64.37326       70.34273
H         73.32345       64.43110       71.54376
H         74.42881       66.21412       68.34980
H         72.50763       66.51465       72.20872
H         74.23545       68.64775       68.07631
H         72.33145       68.95245       71.91229
H         73.18960       70.02725       69.85028
N         72.14486       64.82354       67.29672
C         70.98360       65.63284       67.66841
C         69.83188       64.82778       68.20794
O         69.32974       65.14949       69.27597
C         70.57642       66.32319       66.35676
C         71.91044       66.47473       65.66511
C         72.53205       65.10784       65.92774
H         71.30617       66.40666       68.39869
H         69.97698       65.63419       65.71950
H         69.99609       67.26120       66.49395
H         71.85642       66.75993       64.59301
H         72.49847       67.24517       66.21526
H         72.08773       64.33159       65.26534
H         73.63153       65.16844       65.77535
N         69.38363       63.73910       67.52804
C         68.29594       62.90736       68.00457
C         66.98019       63.60355       67.68552
O         66.71457       63.81022       66.50938
C         68.30382       61.49254       67.36030
C         69.54706       60.63220       67.69355
C         70.79094       60.86989       66.86806
O         71.91811       60.20166       67.17592
O         70.77885       61.57584       65.87390
H         69.85280       63.49819       66.65107
H         68.43036       62.74016       69.09469
H         68.13517       61.51769       66.26199
H         67.43708       60.96486       67.81743
H         69.28367       59.56904       67.52199
H         69.77708       60.73858       68.77173
N         66.08850       64.00825       68.63359
C         66.28136       63.84254       70.05668
H         67.18201       64.39586       70.38932
H         65.40624       64.25616       70.60204
H         66.37868       62.76661       70.30941
H         65.21782       64.46709       68.32232
Ca        68.61242       46.75580       69.44550
O         66.68581       45.41371       72.22099
H         67.13166       45.37687       73.10414
H         66.37582       44.48736       72.05991
O         69.71422       44.49984       71.47414
H         70.69279       44.64941       71.45799
H         69.56142       43.93367       72.27196
O         69.15990       47.52723       72.63948
H         69.37852       46.82879       73.30658
H         69.81127       48.25164       72.81606
O         67.63513       43.84449       69.12940
H         67.42212       43.86820       68.16269
H         68.20676       43.04393       69.24000

Ca 1.0



