%chk=apoCaM-CA-Ng.loop1.water2.frame885.chk
%nprocshared=20
%mem=10GB
%nosave
#b3lyp/svp scf=(tight,noincore,xqc) Test 
#IOP(5/87=12) Density=Current Pop=(MK,readradii) iop(6/33=2) iop(6/42=6)

apoCaM-CA-Ng.loop1.water2.frame885 

   0  1 
C         -1.39375       -9.43104       32.90729
C         -1.57494       -8.03161       33.42267
O         -2.61940       -7.44367       33.18153
H         -0.40504       -9.84645       33.19682
H         -2.18434      -10.08743       33.32814
H         -1.46663       -9.43552       31.80004
N         -0.59679       -7.43704       34.16076
C         -0.72533       -6.09679       34.72196
C         -0.90513       -5.03332       33.64443
O         -0.02782       -4.85817       32.82270
C          0.46917       -5.76572       35.65438
C          1.87896       -5.88334       35.09578
O          2.15049       -6.35648       33.85851
O          2.81283       -5.56914       35.81574
H          0.25548       -7.98135       34.36172
H         -1.63017       -6.08284       35.36995
H          0.41817       -6.44715       36.53142
H          0.32197       -4.72887       36.02989
N         -2.04179       -4.28404       33.57904
C         -2.23675       -3.23543       32.57807
C         -1.31844       -2.05232       32.86441
O         -1.42260       -1.47944       33.93997
C         -3.72088       -2.80989       32.55669
C         -4.02626       -1.76972       31.46142
C         -5.52895       -1.46504       31.31814
C         -6.32778       -2.65681       30.75412
N         -7.73589       -2.30905       30.56935
H         -2.80326       -4.48502       34.24587
H         -2.02493       -3.66183       31.57163
H         -4.03150       -2.40830       33.54685
H         -4.30087       -3.73345       32.35997
H         -3.64190       -2.11880       30.47826
H         -3.49969       -0.82562       31.72112
H         -5.63538       -0.61934       30.60410
H         -5.94577       -1.14531       32.29806
H         -6.26985       -3.53055       31.43504
H         -5.89593       -2.95123       29.77121
H         -8.23927       -3.13173       30.16437
H         -8.16879       -2.06796       31.49023
H         -7.82676       -1.50155       29.91112
N         -0.41898       -1.61484       31.92918
C          0.47362       -0.46263       32.14232
C          1.17686       -0.02077       30.85426
O          1.13114       -0.74881       29.87268
C          1.49567       -0.77371       33.27121
C          2.33600       -2.00116       33.04671
O          2.97890       -2.44715       33.98352
O          2.36826       -2.65856       31.87176
H         -0.41007       -2.10430       31.02283
H         -0.17413        0.39134       32.43838
H          0.92124       -0.94940       34.20182
H          2.18322        0.06448       33.48768
N          1.80772        1.18707       30.72317
C          1.90107        2.22639       31.74041
C          1.11998        3.45174       31.33867
O          0.45806        3.44388       30.31325
H          2.22463        1.41133       29.80546
H          2.97204        2.48655       31.88460
H          1.48399        1.91741       32.71206
N          1.11238        4.54687       32.14503
C          0.31283        5.73161       31.84390
C          0.78456        6.39509       30.56650
O          1.97914        6.39306       30.29802
C          0.36275        6.74886       32.99862
C         -0.10999        6.14111       34.29127
O          0.71329        6.10059       35.35619
O         -1.23618        5.67816       34.38139
H          1.66678        4.51681       33.01521
H         -0.74961        5.42056       31.72481
H         -0.29514        7.61238       32.75549
H          1.40128        7.12479       33.12639
N         -0.10295        7.02933       29.74690
C          0.31849        7.70966       28.53429
C          0.83750        6.76546       27.46872
O          1.42163        7.25294       26.51101
H         -1.09850        7.07090       30.01286
H          1.11323        8.43859       28.80589
H         -0.52777        8.28373       28.09803
N          0.62211        5.41629       27.52249
C          1.12377        4.50799       26.49266
C          2.63476        4.36755       26.61875
O          3.17859        4.72580       27.65595
C          0.39616        3.13645       26.59985
C          0.71512        2.15641       25.46933
O          0.69641        2.52590       27.82610
H          0.04385        5.03226       28.28296
H          0.86463        4.94860       25.50412
H         -0.69548        3.36323       26.54204
H         -0.08234        1.95963       28.06983
H          0.07801        1.25295       25.57629
H          0.50534        2.62110       24.48337
H          1.76893        1.81888       25.51838
N          3.37635        3.85258       25.59568
C          4.81387        3.60427       25.69711
C          5.61988        4.53193       24.80064
O          6.77243        4.78123       25.12611
C          5.11861        2.08764       25.50836
C          6.59625        1.75949       25.83890
C          4.73180        1.58235       24.10150
C          6.85243        0.25710       25.99026
H          2.89115        3.62598       24.71781
H          5.13869        3.86032       26.72970
H          4.48763        1.55591       26.25605
H          6.85732        2.22169       26.81542
H          7.27322        2.17854       25.06282
H          3.66002        1.75555       23.88626
H          5.33758        2.08880       23.32093
H          4.87875        0.48839       24.01258
H          7.90666        0.08711       26.28573
H          6.20117       -0.15973       26.78837
H          6.67303       -0.29315       25.04596
N          5.09139        5.10450       23.68044
C          5.79986        6.11457       22.90515
C          6.30809        5.50534       21.61417
O          5.50671        4.98149       20.85304
C          4.86570        7.32035       22.61541
C          4.26635        7.91300       23.89999
O          5.59682        8.31214       21.93899
H          4.15007        4.83595       23.36077
H          6.67016        6.50506       23.47715
H          4.02552        6.97164       21.96957
H          4.94035        8.96796       21.58457
H          5.06731        8.26759       24.58124
H          3.60623        8.77096       23.64669
H          3.64448        7.15892       24.42761
N          7.63359        5.59590       21.28108
C          8.15182        5.16193       19.98358
C          9.44468        4.34328       20.06326
O          9.84245        3.82507       19.02826
C          8.34769        6.43727       19.12410
C          8.74461        6.16124       17.66890
O          9.30423        7.27072       19.72826
H          8.25924        6.11993       21.91037
H          7.39349        4.52186       19.48151
H          7.35878        6.95368       19.10899
H          9.20161        8.17133       19.32440
H          9.76432        5.73336       17.59809
H          8.01309        5.47423       17.19417
H          8.75277        7.11602       17.10347
N         10.17344        4.18341       21.20644
C         11.47466        3.50597       21.21178
C         11.99082        3.27726       22.61944
O         11.80046        4.11409       23.49318
C         12.52954        4.22786       20.32876
C         12.70473        5.72922       20.61809
C         13.70818        6.34532       19.62608
C         13.80349        7.87015       19.77389
N         14.75267        8.42936       18.80908
H          9.81619        4.57025       22.09123
H         11.33853        2.49111       20.77476
H         12.22275        4.13501       19.26704
H         13.50695        3.70419       20.42201
H         13.05224        5.89205       21.66076
H         11.72387        6.23293       20.48488
H         13.37811        6.12394       18.58678
H         14.71012        5.88910       19.78377
H         14.12810        8.13155       20.80468
H         12.80007        8.31808       19.59515
H         14.77594        9.46978       18.91121
H         15.71142        8.05065       18.98595
H         14.45814        8.19565       17.83257
N         12.65296        2.11927       22.90291
C         13.07486        1.74355       24.24368
C         11.85813        1.54730       25.14354
O         11.80212        2.22310       26.16044
C         14.00315        0.50372       24.20985
C         14.55003        0.14414       25.60146
C         15.57729       -0.94884       25.51266
O         16.60692       -0.77329       24.87977
O         15.37941       -2.11937       26.14789
H         12.85885        1.47177       22.12526
H         13.70259        2.56796       24.65388
H         14.86174        0.75828       23.54942
H         13.50234       -0.38772       23.78215
H         13.71306       -0.18551       26.25480
H         15.03052        1.03304       26.06372
N         10.82467        0.68833       24.88251
C         10.66708       -0.15791       23.71486
H          9.73274        0.12514       23.18501
H         11.48915       -0.08389       22.98988
H         10.58549       -1.21739       24.03444
H         10.05740        0.64616       25.56905
Ca         2.46659       -4.86977       32.19570
O          0.35775       -6.21448       30.03637
H          0.77094       -6.85102       30.67261
H         -0.13721       -6.78739       29.39841
O          3.34238       -5.20806       29.10624
H          2.93192       -4.65278       28.39658
H          4.13017       -4.68755       29.40455

Ca 1.0



