%chk=apoCaM-CA-Ng.loop3.water4.frame145.chk
%nprocshared=20
%mem=10GB
%nosave
#b3lyp/svp scf=(tight,noincore,xqc) Test 
#IOP(5/87=12) Density=Current Pop=(MK,readradii) iop(6/33=2) iop(6/42=6)

apoCaM-CA-Ng.loop3.water4.frame145 

   0  1 
C         52.13306       22.59622        1.40927
C         52.15857       21.09621        1.32440
O         51.92756       20.43930        2.32841
H         51.13123       22.93543        1.74393
H         52.89625       22.94873        2.12950
H         52.35041       23.06194        0.42412
N         52.44286       20.48719        0.14011
C         52.48793       19.04645       -0.07644
C         53.56341       18.39324        0.78747
O         53.30047       17.40054        1.45254
C         51.07248       18.43482        0.09123
C         50.94059       17.00576       -0.37369
O         49.74491       16.39348       -0.28032
O         51.88683       16.40023       -0.85263
H         52.64866       21.08199       -0.67769
H         52.78890       18.89876       -1.13837
H         50.35796       19.03372       -0.51421
H         50.75834       18.49665        1.15460
N         54.81739       18.92630        0.81792
C         55.94777       18.32635        1.52230
C         56.37079       19.16479        2.72435
O         57.46797       18.96282        3.22798
C         57.13415       18.20724        0.54257
C         56.78580       17.44723       -0.74743
C         58.00750       17.23021       -1.65779
C         58.69001       18.53684       -2.10198
N         59.79966       18.26084       -3.01322
H         54.98930       19.80658        0.30720
H         55.70459       17.30617        1.89329
H         57.97052       17.68238        1.05498
H         57.46482       19.23405        0.27776
H         56.00654       18.00531       -1.31130
H         56.37524       16.44864       -0.48300
H         57.66236       16.68037       -2.56032
H         58.74949       16.59517       -1.12687
H         59.09238       19.07659       -1.21814
H         57.95044       19.19345       -2.61123
H         59.44481       17.79732       -3.88071
H         60.26040       19.16256       -3.27438
H         60.50464       17.64535       -2.54571
N         55.53931       20.10105        3.26349
C         55.91888       20.98624        4.36011
C         56.39590       20.20620        5.57579
O         55.67665       19.33718        6.04943
C         54.71900       21.87556        4.73702
C         55.07423       22.96714        5.70066
O         54.20627       23.73372        6.07611
O         56.34062       23.13956        6.12601
H         54.59255       20.20210        2.87121
H         56.73493       21.64760        3.99277
H         53.90675       21.24612        5.16413
H         54.33273       22.37025        3.82404
N         57.61579       20.47182        6.13056
C         58.15445       19.71646        7.24889
C         57.35211       19.81564        8.53405
O         57.63787       19.03052        9.42687
H         58.20933       21.20772        5.71775
H         59.19511       20.04551        7.46588
H         58.19776       18.65060        6.93996
N         56.37695       20.75379        8.73498
C         55.57976       20.81859        9.96177
C         54.07076       20.81292        9.70365
O         53.32242       20.80014       10.67094
C         56.05805       21.98247       10.85239
C         55.94299       23.37623       10.29984
N         56.44263       24.40320       11.02699
O         55.42060       23.59011        9.21643
H         56.22552       21.47354        8.01794
H         55.76895       19.91026       10.57465
H         57.13462       21.80378       11.06712
H         55.51195       21.95044       11.82012
H         56.89468       24.23087       11.93672
H         56.39820       25.37059       10.68880
N         53.54586       20.74717        8.44477
C         52.12835       20.56368        8.17495
C         51.26621       21.73090        8.58737
O         50.34065       21.54476        9.36414
H         54.16813       20.74053        7.62810
H         51.78045       19.63131        8.67008
H         51.98901       20.43069        7.07893
N         51.47413       22.95515        8.03682
C         50.58764       24.10246        8.22158
C         51.32553       25.23227        8.89596
O         52.49828       25.07554        9.20467
C         50.07201       24.52417        6.82854
C         49.30776       23.38140        6.21335
C         47.97455       23.14759        6.58334
C         49.93724       22.50987        5.30864
C         47.27832       22.05768        6.05454
C         49.24475       21.41055        4.79514
C         47.91188       21.18065        5.16734
O         47.23476       20.11876        4.68695
H         52.27374       23.06766        7.39902
H         49.72250       23.84558        8.87138
H         50.95142       24.77637        6.19679
H         49.42708       25.42889        6.85437
H         47.47650       23.81031        7.28068
H         50.97154       22.66389        5.02473
H         46.24908       21.88852        6.34466
H         49.74742       20.73388        4.11640
H         47.64350       19.47629        4.08965
N         50.69667       26.41323        9.16446
C         51.38962       27.51832        9.81363
C         51.70831       27.10813       11.24346
O         52.87156       26.94986       11.57389
C         50.57022       28.85045        9.75379
C         50.10685       29.22666        8.31620
C         51.36858       30.01219       10.37729
C         51.22654       29.34923        7.28039
H         49.71135       26.52128        8.88611
H         52.33534       27.69997        9.25902
H         49.63881       28.73774       10.34906
H         49.55171       30.18943        8.35811
H         49.38763       28.47077        7.94042
H         50.76541       30.94534       10.35824
H         51.61797       29.79826       11.43586
H         52.31862       30.18876        9.83223
H         51.95618       30.13326        7.56340
H         51.74978       28.38009        7.15433
H         50.78570       29.62361        6.29881
N         50.70219       26.89568       12.13678
C         50.90726       26.47197       13.51903
C         51.78900       27.43080       14.30053
O         52.69472       26.95986       14.97523
C         49.55422       26.29827       14.22897
O         48.84834       27.51065       14.25632
H         49.73339       27.03067       11.81142
H         51.39320       25.46991       13.52377
H         49.71517       25.93999       15.26963
H         48.97611       25.52097       13.67537
H         47.88330       27.27926       14.25864
N         51.60054       28.78482       14.24745
C         52.37271       29.75383       15.02650
C         53.88374       29.71755       14.77096
O         54.59500       30.42806       15.46776
C         52.05958       29.57255       16.52015
H         50.85660       29.15536       13.63771
H         52.02402       30.77773       14.76439
H         50.96435       29.67092       16.68315
H         52.38910       28.58306       16.89581
H         52.56078       30.36229       17.12021
N         54.44844       28.94535       13.79355
C         55.88634       28.84303       13.56911
C         56.26333       29.36306       12.19589
O         55.38766       29.70915       11.41482
C         56.31287       27.37934       13.72304
H         53.84771       28.40370       13.16904
H         56.43889       29.45178       14.31693
H         57.40767       27.26394       13.58057
H         56.05345       27.01633       14.74027
H         55.78802       26.74366       12.97675
N         57.58340       29.51041       11.87177
C         58.07739       30.08997       10.62502
C         57.36962       31.40843       10.34968
O         56.80096       31.58538        9.27894
C         57.92988       29.11698        9.44175
C         58.65068       27.77617        9.64492
C         58.37453       26.93289        8.44124
O         58.73695       27.29525        7.33286
O         57.55778       25.87789        8.56557
H         58.28855       29.27448       12.58618
H         59.16502       30.29001       10.74653
H         58.34656       29.60423        8.53119
H         56.85109       28.92349        9.26174
H         58.23314       27.27098       10.54318
H         59.74469       27.91027        9.78373
N         57.31407       32.35997       11.31958
C         56.57798       33.59851       11.17257
H         55.77289       33.63251       11.93683
H         57.26331       34.45564       11.32483
H         56.10392       33.69635       10.17264
H         57.77799       32.18310       12.22317
Ca        55.94536       25.71395        7.01690
O         57.43987       26.12029        4.56220
H         57.41755       27.04123        4.92629
H         57.95512       25.60077        5.23007
O         53.06187       26.38921        5.43732
H         52.88721       25.64098        4.81316
H         52.46562       27.11379        5.12330
O         54.87439       27.16073        9.46217
H         55.29533       27.47758       10.29671
H         54.57480       26.24741        9.68540
O         54.75045       28.57464        6.89444
H         54.45997       28.90687        6.00846
H         54.51192       29.29986        7.52480

Ca 1.0



