%chk=apoCaM-CA-Ng.loop2.water4.frame1062.chk
%nprocshared=20
%mem=10GB
%nosave
#b3lyp/svp scf=(tight,noincore,xqc) Test 
#IOP(5/87=12) Density=Current Pop=(MK,readradii) iop(6/33=2) iop(6/42=6)

apoCaM-CA-Ng.loop2.water4.frame1062 

   -2  1 
C         -0.59771       70.56560       65.04255
C          0.53428       71.54068       64.83756
O          0.71313       71.96264       63.70456
H         -1.55229       71.04575       64.74448
H         -0.42762       69.67553       64.40086
H         -0.70714       70.20099       66.07862
N          1.37971       71.94820       65.82989
C          1.31544       71.51345       67.22400
C          2.71324       71.60400       67.83120
O          3.61958       71.07390       67.20213
C          0.14699       72.23521       67.96420
C          0.22489       73.73299       67.84620
O         -0.57577       74.33566       67.14835
O          1.23571       74.40497       68.41008
H          2.15545       72.57410       65.55505
H          1.12933       70.41947       67.24835
H          0.08568       71.93151       69.02922
H         -0.80510       71.92853       67.48713
N          2.98704       72.20446       69.02728
C          4.32312       72.26043       69.60988
C          5.29036       72.99490       68.69133
O          6.29564       72.41713       68.29897
C          4.81205       70.84180       69.96979
H          2.23011       72.62350       69.58013
H          4.26806       72.82615       70.56636
H          4.93216       70.20010       69.07254
H          5.79558       70.89397       70.48361
H          4.08731       70.35197       70.65370
N          5.06265       74.29437       68.33230
C          5.99593       75.04528       67.49309
C          5.68885       76.52840       67.45839
O          4.56442       76.90765       67.17846
C          6.15425       74.47920       66.05246
C          5.09280       74.63349       64.97532
O          5.38691       74.24520       63.85687
O          3.87438       75.19173       65.12689
H          4.23813       74.77096       68.72706
H          7.00144       74.94004       67.95982
H          6.41896       73.40543       66.10381
H          7.04411       75.00140       65.63636
N          6.67177       77.45011       67.66695
C          6.40962       78.87386       67.54960
C          5.94832       79.28109       66.15848
O          5.54565       80.42684       66.01230
H          7.62878       77.14312       67.89675
H          7.31990       79.45752       67.80530
H          5.61602       79.13821       68.28301
N          5.96945       78.42375       65.08789
C          5.45061       78.80921       63.78052
C          3.95983       79.07291       63.85143
O          3.28554       78.57669       64.74318
C          5.74483       77.74753       62.70208
C          7.22854       77.61275       62.45834
N          7.86405       76.42970       62.62444
O          7.86271       78.58746       62.08238
H          6.37350       77.48299       65.18846
H          5.95317       79.75535       63.47984
H          5.27674       78.05422       61.74145
H          5.29545       76.77610       62.99949
H          7.35467       75.58873       62.92537
H          8.87492       76.35195       62.43741
N          3.39626       79.91651       62.95002
C          2.01431       80.35111       63.03501
C          1.73292       81.32622       61.91378
O          1.55133       82.49991       62.20254
H          4.00047       80.31467       62.21371
H          1.87268       80.86019       64.01495
H          1.30697       79.49450       63.00469
N          1.68754       80.95256       60.59962
C          1.73412       79.56794       60.13178
C          2.87417       79.31929       59.15375
O          3.58423       80.24265       58.77921
C          0.38282       79.23611       59.44146
C         -0.81564       79.46403       60.36713
O          0.23415       80.03115       58.29045
H          1.52566       81.69013       59.89558
H          1.87643       78.86460       60.97464
H          0.38343       78.15830       59.16102
H         -0.28100       79.49890       57.62945
H         -1.75054       79.17952       59.83922
H         -0.72098       78.84560       61.28382
H         -0.89578       80.53403       60.65476
N          3.05200       78.05944       58.66039
C          3.92045       77.72688       57.53991
C          3.07234       77.80400       56.27421
O          2.02246       77.17354       56.27108
C          4.45240       76.26366       57.68523
C          5.27773       76.02357       58.97251
C          5.25167       75.82227       56.43956
C          6.55953       76.84826       59.07376
H          2.40853       77.32106       58.98216
H          4.78979       78.40249       57.51735
H          3.57576       75.57975       57.75086
H          5.55876       74.94719       59.00403
H          4.65213       76.22763       59.86707
H          5.60708       74.77720       56.55597
H          4.60647       75.83644       55.53796
H          6.12011       76.48650       56.25146
H          6.33631       77.93151       59.14647
H          7.11819       76.53865       59.97694
H          7.21526       76.66386       58.20758
N          3.42324       78.45819       55.12671
C          4.64385       79.22209       54.86424
C          5.54734       78.44847       53.90579
O          5.20127       77.33980       53.52957
C          4.25666       80.62666       54.34274
C          3.39566       80.59230       53.10626
O          3.81254       80.09652       52.07182
O          2.15311       81.11213       53.14026
H          2.77378       78.35258       54.33125
H          5.24558       79.37689       55.77365
H          5.16401       81.22935       54.13048
H          3.69409       81.14887       55.14754
N          6.75099       78.96747       53.51154
C          7.72047       78.26470       52.66100
C          8.93736       79.15896       52.44726
O          8.75369       80.24246       51.91128
C          7.11377       77.87165       51.27971
C          8.08527       77.11929       50.38256
C          9.15277       77.78235       49.74478
C          7.91906       75.73920       50.15680
C         10.03536       77.08278       48.91834
C          8.80792       75.04222       49.33046
C          9.86554       75.71337       48.71312
H          7.00441       79.90109       53.86647
H          8.00824       77.32456       53.17299
H          6.72481       78.76019       50.73754
H          6.24741       77.20731       51.45447
H          9.30397       78.84385       49.86812
H          7.10764       75.19713       50.62586
H         10.84979       77.60582       48.43347
H          8.67678       73.98033       49.16736
H         10.55101       75.17426       48.07185
N         10.21606       78.78726       52.78200
C         10.61933       77.54543       53.42548
C         10.27738       77.55425       54.91056
O          9.60615       78.46930       55.37093
C         12.12416       77.48217       53.13540
C         12.52217       78.93791       53.17740
C         11.36631       79.60443       52.44328
H         10.16174       76.64825       52.95235
H         12.71475       76.79608       53.77804
H         12.25305       77.15196       52.07808
H         12.48080       79.25676       54.23457
H         13.52828       79.17608       52.77219
H         11.27041       80.65829       52.78188
H         11.50313       79.56516       51.33995
N         10.65645       76.51280       55.70510
C         10.19005       76.34547       57.07824
C         10.44570       74.91853       57.57798
O         11.08943       74.74241       58.60181
C         10.72740       77.44158       58.05215
C         12.25687       77.50543       58.24903
C         12.97244       78.03026       57.04546
O         13.80883       77.34940       56.47397
O         12.72858       79.28529       56.62647
H         11.22026       75.76025       55.28185
H          9.08797       76.44517       57.06645
H         10.27097       77.23946       59.04651
H         10.36651       78.44641       57.74774
H         12.66586       76.51835       58.53902
H         12.47623       78.20646       59.08320
N          9.93144       73.81988       56.95045
C          9.10882       73.86175       55.75847
H          8.20301       74.47744       55.93461
H          9.67481       74.25747       54.89414
H          8.79009       72.83236       55.49072
H         10.11731       72.89181       57.36197
Ca         2.51064       75.35002       66.88450
O          0.78940       75.72906       64.04873
H          0.11990       75.08443       64.39033
H          1.38511       75.18600       63.47373
O          2.35151       79.40212       67.28019
H          1.70162       79.73078       67.94977
H          2.57500       80.20148       66.74014
O         -0.42143       78.16117       65.96899
H         -1.32273       77.97246       65.60507
H         -0.57507       78.84709       66.66644
O          0.52715       77.37391       68.95330
H          0.83107       76.74958       69.65859
H         -0.09497       77.98811       69.41791

Ca 1.0



