%chk=apoCaM-CA-Ng.loop1.water3.frame203.chk
%nprocshared=20
%mem=10GB
%nosave
#b3lyp/svp scf=(tight,noincore,xqc) Test 
#IOP(5/87=12) Density=Current Pop=(MK,readradii) iop(6/33=2) iop(6/42=6)

apoCaM-CA-Ng.loop1.water3.frame203 

   0  1 
C         11.46901       12.72613       48.78457
C         12.33088       12.51310       49.99477
O         13.18670       11.64040       49.97072
H         10.72844       13.53808       48.95109
H         12.10247       13.00212       47.91676
H         10.91504       11.79201       48.55827
N         12.16258       13.29179       51.09756
C         12.97011       13.16473       52.30629
C         12.73629       11.86454       53.09322
O         13.37279       11.71522       54.11896
C         12.88260       14.45842       53.17066
C         11.52745       14.84776       53.70956
O         11.36225       15.05392       55.02764
O         10.59962       15.08983       52.95667
H         11.47253       14.05113       51.03455
H         14.03101       13.14586       51.99753
H         13.24015       15.30571       52.54465
H         13.59667       14.37410       54.01728
N         11.91641       10.85299       52.67155
C         11.73389        9.59583       53.41086
C         12.26903        8.41613       52.60222
O         11.92059        8.34746       51.43156
C         10.24364        9.38618       53.72633
C          9.70714       10.53315       54.59063
C          8.30284       10.24045       55.11972
C          7.80172       11.41194       55.97511
N          6.51393       11.09949       56.59091
H         11.39756       10.95137       51.78953
H         12.23333        9.63225       54.38553
H         10.14545        8.43366       54.29137
H          9.64296        9.30216       52.79374
H          9.70593       11.47489       53.99763
H         10.37670       10.65721       55.46798
H          8.34873        9.32249       55.74647
H          7.59924       10.06539       54.27687
H          7.70195       12.31828       55.33631
H          8.53801       11.63092       56.78012
H          6.19551       11.92325       57.15061
H          5.80115       10.88728       55.85620
H          6.61845       10.27894       57.23162
N         13.07112        7.40780       53.09331
C         13.53835        7.18155       54.46775
C         12.36529        7.03262       55.43159
O         12.17865        7.90127       56.27165
C         14.58178        8.22364       54.94798
C         15.82596        8.28162       54.11200
O         15.98300        7.52390       53.00887
O         16.71532        9.05334       54.43438
H         13.34057        6.67366       52.41888
H         14.09301        6.21644       54.50050
H         14.89740        7.94558       55.97604
H         14.17325        9.24487       55.00015
N         11.50733        5.96950       55.40231
C         11.65302        4.80732       54.53188
C         10.42302        3.90914       54.59456
O          9.33450        4.44544       54.74782
H         10.71662        5.99084       56.06555
H         12.58053        4.26202       54.79660
H         11.73563        5.13972       53.47816
N         10.44474        2.56526       54.33827
C         11.64536        1.77702       54.07290
C         12.43550        1.50225       55.34060
O         11.89479        1.62371       56.43179
C         11.29929        0.42137       53.39526
C         10.47563       -0.52183       54.24701
O          9.34308       -0.22950       54.59532
O         10.97975       -1.72003       54.59834
H          9.52659        2.10623       54.26366
H         12.27083        2.34613       53.35054
H         12.24949       -0.09511       53.13622
H         10.75566        0.61044       52.44502
N         13.72876        1.07576       55.25167
C         14.53478        0.65861       56.39049
C         14.80533        1.72233       57.43534
O         15.46080        1.38509       58.41251
H         14.15630        0.99128       54.31689
H         15.51971        0.30134       56.01749
H         14.02795       -0.19800       56.88475
N         14.33905        3.00046       57.33622
C         14.53891        4.00609       58.37260
C         13.19442        4.36686       58.98049
O         12.16968        3.98591       58.42496
C         15.21807        5.25203       57.75102
C         16.54008        4.89930       57.06035
O         15.46105        6.21585       58.74018
H         13.79837        3.28790       56.51173
H         15.17440        3.59899       59.18965
H         14.51911        5.66465       56.98592
H         15.59566        7.08035       58.27122
H         16.97697        5.81210       56.60190
H         17.26016        4.48247       57.79503
H         16.37733        4.15995       56.24788
N         13.11825        5.09748       60.13040
C         11.85099        5.51874       60.72056
C         11.71421        7.03821       60.64332
O         10.61096        7.52577       60.83043
C         11.71774        4.98959       62.18775
C         12.03236        3.47422       62.32043
C         10.33993        5.29834       62.81183
C         11.11254        2.54010       61.53087
H         13.99488        5.36591       60.60403
H         11.01109        5.10550       60.12047
H         12.48334        5.50980       62.80636
H         11.97334        3.19155       63.39509
H         13.07845        3.28783       61.99658
H         10.28929        4.90137       63.84818
H         10.15933        6.38754       62.88898
H          9.51852        4.84728       62.21691
H         11.18290        2.73791       60.44479
H         11.42679        1.48961       61.70732
H         10.05775        2.64099       61.85541
N         12.78402        7.85404       60.37386
C         12.67289        9.30462       60.29718
C         13.19178        9.81333       58.95982
O         13.86220        9.09909       58.23216
C         13.46682        9.94894       61.46620
C         12.95499        9.48723       62.83851
O         13.43724       11.35348       61.40148
H         13.72446        7.46340       60.25510
H         11.60711        9.60894       60.37930
H         14.53036        9.63383       61.38141
H         12.49628       11.64201       61.53311
H         13.56032        9.95946       63.64092
H         11.89193        9.78072       62.97395
H         13.03877        8.38545       62.94400
N         12.87128       11.07884       58.58143
C         13.30598       11.72410       57.34486
C         14.82322       11.96639       57.30370
O         15.51711       11.60212       58.24415
C         12.52068       13.05773       57.17294
C         12.76294       14.08726       58.28664
O         11.14249       12.78601       57.11068
H         12.22835       11.58660       59.20054
H         13.03135       11.06962       56.49156
H         12.84473       13.54324       56.23278
H         10.87574       12.80832       56.15515
H         13.83980       14.33447       58.37037
H         12.20365       15.01738       58.05189
H         12.40183       13.73204       59.27278
N         15.39049       12.64524       56.25511
C         16.78182       13.08231       56.21043
C         17.42104       12.90508       54.81736
O         18.56157       13.30870       54.64855
C         16.77737       14.57192       56.64921
C         18.15400       15.24759       56.83506
C         19.09948       14.52948       57.81655
C         18.55487       14.47563       59.25326
N         19.49212       13.78467       60.13802
H         14.77923       13.02307       55.52513
H         17.37558       12.50747       56.95063
H         16.23914       14.63986       57.61827
H         16.18790       15.16613       55.91645
H         17.98672       16.28742       57.19083
H         18.66348       15.33643       55.85630
H         20.06332       15.08285       57.82908
H         19.31518       13.50365       57.45244
H         17.58333       13.93835       59.28348
H         18.39580       15.51364       59.62153
H         19.60045       12.78983       59.83282
H         20.42309       14.26087       60.12601
H         19.11616       13.79850       61.11359
N         16.77792       12.29996       53.77322
C         17.35902       12.21500       52.43057
C         17.31680       13.57527       51.75530
O         16.23860       14.13375       51.61041
C         16.58550       11.18465       51.57761
C         17.10455       11.02248       50.13250
C         18.55948       10.63111       50.01105
O         19.02076        9.45526       50.48833
O         19.32990       11.37077       49.41979
H         15.86043       11.86627       53.93074
H         18.40237       11.83763       52.50593
H         15.51543       11.46820       51.52014
H         16.62558       10.21524       52.09621
H         16.94357       11.98118       49.59255
H         16.49231       10.24945       49.62096
N         18.44824       14.15363       51.27139
C         18.40930       15.41012       50.55190
H         19.43120       15.69664       50.22670
H         17.77002       15.30609       49.64733
H         17.99708       16.21227       51.19992
H         19.35616       13.68011       51.38780
Ca        17.76005        8.08450       51.75135
O         20.09104        9.66726       53.36892
H         20.76236       10.12195       52.80055
H         19.95755       10.27940       54.13548
O         19.41546        6.87302       54.71171
H         20.33043        6.49609       54.67387
H         19.45345        7.54364       55.43932
O         18.18944        5.01441       52.18327
H         17.55601        4.99402       51.42231
H         18.06921        4.13949       52.63071

Ca 1.0



