%chk=apoCaM-CA-Ng.loop4.water5.frame708.chk
%nprocshared=20
%mem=10GB
%nosave
#b3lyp/svp scf=(tight,noincore,xqc) Test 
#IOP(5/87=12) Density=Current Pop=(MK,readradii) iop(6/33=2) iop(6/42=6)

apoCaM-CA-Ng.loop4.water5.frame708 

   -3  1 
C        106.60687      -19.92730      -12.39624
C        106.91347      -21.35696      -12.04239
O        106.05476      -22.21075      -12.18893
H        105.75479      -19.55929      -11.79064
H        107.48205      -19.26792      -12.21235
H        106.34813      -19.85022      -13.47215
N        108.13589      -21.69209      -11.55660
C        108.56189      -23.04973      -11.23263
C        108.61876      -23.89595      -12.50281
O        108.07289      -24.99249      -12.54105
C        107.66331      -23.71964      -10.16374
C        107.06312      -22.78148       -9.15872
O        105.85432      -22.69084       -9.13442
O        107.75417      -22.01676       -8.30172
H        108.82941      -20.94140      -11.41445
H        109.59113      -22.96052      -10.82089
H        108.20449      -24.55809       -9.67725
H        106.78204      -24.16708      -10.67913
N        109.22636      -23.40553      -13.61795
C        109.24850      -24.14092      -14.88399
C        110.03489      -25.45011      -14.74690
O        110.79701      -25.57369      -13.79816
C        109.76123      -23.24763      -16.06370
C        111.17055      -22.65516      -15.78973
C        108.71112      -22.15894      -16.36753
C        111.75812      -21.90058      -16.98179
H        109.61758      -22.45743      -13.56108
H        108.19105      -24.42043      -15.09253
H        109.84447      -23.86711      -16.97879
H        111.86646      -23.48496      -15.54461
H        111.15597      -21.95217      -14.93350
H        108.98788      -21.56295      -17.25929
H        107.73265      -22.63407      -16.60077
H        108.57157      -21.47554      -15.50438
H        111.14496      -21.01494      -17.24436
H        112.77244      -21.53523      -16.71616
H        111.83846      -22.57254      -17.86134
N        109.85212      -26.52729      -15.57596
C        108.92191      -26.56555      -16.70155
C        107.65916      -27.34223      -16.38692
O        106.72141      -27.19386      -17.14965
C        109.59877      -27.04468      -18.00530
C        110.05844      -28.48141      -17.96942
O        109.57804      -29.29357      -18.74402
O        111.02548      -28.87576      -17.11988
H        110.35936      -27.39140      -15.33799
H        108.54859      -25.55131      -16.90906
H        110.46824      -26.39260      -18.23596
H        108.86621      -26.93101      -18.83607
N        107.50945      -28.11905      -15.27417
C        106.22775      -28.70183      -14.90280
C        105.68503      -29.67020      -15.93251
O        106.28586      -30.71228      -16.15047
H        108.29964      -28.25570      -14.62848
H        105.50817      -27.86915      -14.74815
H        106.32360      -29.23786      -13.93412
N        104.53134      -29.37372      -16.60019
C        103.88497      -30.25718      -17.56920
C        104.02996      -29.74827      -19.00104
O        103.57988      -30.42965      -19.91219
C        102.41186      -30.48943      -17.15197
C        101.61188      -29.22357      -16.96114
O        101.40878      -28.46419      -17.89121
O        101.10290      -28.92931      -15.74925
H        104.09211      -28.45674      -16.42512
H        104.38346      -31.25126      -17.57386
H        102.41749      -31.02941      -16.18082
H        101.90128      -31.13868      -17.89572
N        104.71298      -28.60288      -19.28404
C        105.02817      -28.13792      -20.62165
C        103.84906      -27.63078      -21.41351
O        104.09027      -27.16202      -22.51532
H        105.10308      -28.05226      -18.52012
H        105.54999      -28.94424      -21.18242
H        105.73442      -27.28265      -20.53158
N        102.56650      -27.65552      -20.93493
C        101.39823      -27.17527      -21.67026
C        101.40694      -25.66189      -21.85925
O        100.47350      -25.17243      -22.48365
C        101.24200      -27.95462      -23.00705
C        100.98825      -29.46255      -22.80041
C         99.53198      -29.77000      -22.53001
N         98.83979      -30.57360      -23.37517
O         98.97009      -29.29445      -21.55528
H        102.38571      -28.04571      -20.00846
H        100.49072      -27.36965      -21.06049
H        102.16266      -27.83783      -23.60600
H        100.42276      -27.54338      -23.63574
H        101.63528      -29.86871      -21.99311
H        101.27348      -29.98547      -23.73709
H         99.29484      -30.99545      -24.19881
H         97.84430      -30.78197      -23.20935
N        102.36075      -24.84350      -21.30868
C        102.33188      -23.38755      -21.44187
C        102.18404      -22.66561      -20.10073
O        101.99192      -21.46152      -20.12570
C        103.60459      -22.86862      -22.17880
C        104.89584      -23.05993      -21.35782
C        103.76400      -23.53666      -23.55057
H        103.13101      -25.25536      -20.76611
H        101.44875      -23.08914      -22.04872
H        103.48144      -21.77574      -22.34911
H        105.76350      -22.63634      -21.90697
H        104.83034      -22.52097      -20.39145
H        105.10004      -24.13131      -21.15545
H        104.63768      -23.10567      -24.08501
H        103.92958      -24.62894      -23.44119
H        102.85790      -23.36977      -24.16896
N        102.35273      -23.30788      -18.90109
C        102.42032      -22.58663      -17.62903
C        101.65812      -23.33819      -16.53270
O        101.21235      -24.44649      -16.77482
C        103.91688      -22.41715      -17.32046
C        104.20677      -21.64612      -16.07486
N        104.91736      -22.21455      -15.08135
O        103.81496      -20.49408      -15.96265
H        102.60596      -24.30187      -18.88813
H        101.95930      -21.58080      -17.73450
H        104.39062      -21.86330      -18.15927
H        104.38892      -23.42259      -17.26898
H        105.27068      -23.18069      -15.15413
H        105.11108      -21.67054      -14.23872
N        101.41504      -22.75414      -15.31070
C        100.58619      -23.42631      -14.30103
C        100.00687      -22.45640      -13.27565
O        100.36377      -21.29029      -13.27116
C        101.34861      -24.61016      -13.63667
C        101.92105      -24.32520      -12.25488
C        102.80925      -23.26273      -12.00885
C        101.52097      -25.13717      -11.17643
C        103.26422      -23.01314      -10.70443
C        101.99106      -24.89949       -9.88761
C        102.85485      -23.83848       -9.63954
O        103.25852      -23.62913       -8.36995
H        101.72209      -21.78738      -15.16079
H         99.70777      -23.82851      -14.85228
H        102.13853      -24.99246      -14.31706
H        100.61765      -25.43986      -13.52408
H        103.12506      -22.61341      -12.81495
H        100.83727      -25.96175      -11.32684
H        103.91928      -22.17143      -10.52930
H        101.67011      -25.53434       -9.07134
H        103.78665      -22.87134       -8.09381
N         99.07157      -22.89542      -12.37993
C         98.46110      -22.01653      -11.39056
C         98.59631      -22.63238      -10.00154
O         97.89561      -23.60489       -9.75727
C         96.95729      -21.84064      -11.73016
C         96.72515      -21.23858      -13.12570
C         95.25632      -21.15562      -13.43624
O         94.73492      -20.07656      -13.66682
O         94.51079      -22.27743      -13.48245
H         98.75439      -23.87385      -12.42970
H         98.92727      -21.01924      -11.41905
H         96.47754      -21.18567      -10.96948
H         96.45928      -22.83639      -11.69799
H         97.19615      -21.87613      -13.90406
H         97.18307      -20.22682      -13.17066
N         99.43568      -22.19219       -9.01004
C        100.50157      -21.18937       -9.09594
C        100.00080      -19.81015       -9.46390
O         99.13980      -19.27773       -8.77709
C        101.23421      -21.10617       -7.72344
C        102.48888      -20.19474       -7.70423
C        103.01193      -20.03738       -6.29206
O        102.25524      -19.60055       -5.43936
O        104.28128      -20.33604       -5.92002
H         99.35568      -22.69914       -8.11293
H        101.23127      -21.53289       -9.85373
H        101.54117      -22.12226       -7.40250
H        100.49807      -20.73943       -6.97415
H        102.21143      -19.18168       -8.06226
H        103.27188      -20.59915       -8.37810
N        100.56051      -19.15154      -10.51879
C        100.21438      -17.79842      -10.89770
H         99.42873      -17.36390      -10.24568
H        101.12113      -17.16053      -10.82232
H         99.85612      -17.78911      -11.94739
H        101.29812      -19.61678      -11.06989
Ca       106.18368      -20.99650       -6.99408
O        106.39533      -20.93181       -3.73474
H        106.75676      -21.64332       -3.14887
H        106.60816      -20.08818       -3.26222
O        106.42023      -18.00753       -5.69124
H        105.78602      -17.42785       -6.18289
H        107.21687      -17.43744       -5.54847
O        107.31675      -23.51673       -5.61566
H        106.92490      -24.42580       -5.61011
H        107.82782      -23.45914       -4.76974
O        109.06112      -19.86041       -5.20589
H        109.37196      -20.27543       -4.36235
H        109.30513      -18.90502       -5.11583
O        105.72946      -18.74172       -8.98873
H        105.15455      -18.03905       -8.59430
H        105.09454      -19.36530       -9.42193

Ca 1.0



