%chk=apoCaM-CA-Ng.loop4.water7.frame840.chk
%nprocshared=20
%mem=10GB
%nosave
#b3lyp/svp scf=(tight,noincore,xqc) Test 
#IOP(5/87=12) Density=Current Pop=(MK,readradii) iop(6/33=2) iop(6/42=6)

apoCaM-CA-Ng.loop4.water7.frame840 

   -3  1 
C         56.00617       69.75224       66.03229
C         56.45430       68.54854       65.25556
O         57.52472       68.01987       65.51738
H         55.03292       69.53850       66.52156
H         56.73592       70.01763       66.82125
H         55.88316       70.61544       65.34349
N         55.64739       68.05345       64.27920
C         55.93875       66.88653       63.45410
C         56.08609       65.61999       64.28730
O         57.00978       64.84432       64.08079
C         57.12746       67.14436       62.50354
C         56.84691       68.30277       61.58572
O         55.90033       68.26073       60.81505
O         57.64344       69.38805       61.60128
H         54.74436       68.52596       64.11469
H         55.04285       66.70842       62.81699
H         57.30567       66.24645       61.87310
H         58.04945       67.34434       63.08932
N         55.14582       65.33300       65.22754
C         55.04629       64.04538       65.91379
C         54.59084       62.98793       64.90498
O         53.64255       63.27310       64.18670
C         54.06884       64.09299       67.14571
C         52.69373       64.77056       66.86801
C         54.78511       64.74134       68.34579
C         51.67649       64.58482       67.99534
H         54.43665       66.05327       65.40152
H         56.03457       63.78129       66.32559
H         53.87427       63.04269       67.44212
H         52.23987       64.33950       65.95401
H         52.81319       65.86382       66.72299
H         54.17450       64.67764       69.26782
H         55.72508       64.18874       68.56670
H         55.03450       65.80188       68.13784
H         52.02278       65.03983       68.94448
H         50.72729       65.08946       67.71521
H         51.47172       63.50559       68.15300
N         55.13331       61.73397       64.77703
C         56.13207       61.11441       65.64714
C         57.01174       60.16004       64.85030
O         56.49020       59.34349       64.10175
C         55.39830       60.32047       66.75211
C         56.29754       59.73579       67.81848
O         55.74677       59.03982       68.82991
O         57.50690       59.90125       67.80227
H         54.65963       61.10687       64.10650
H         56.76506       61.86390       66.15333
H         54.80180       59.50442       66.29060
H         54.69861       60.99787       67.27548
N         58.35519       60.13025       65.06065
C         59.21947       59.13899       64.43840
C         60.52492       59.04551       65.19076
O         60.85463       57.97817       65.68941
H         58.75281       60.77316       65.76224
H         59.38334       59.40225       63.37090
H         58.73586       58.13743       64.48336
N         61.30248       60.14921       65.34118
C         62.55046       60.16255       66.09540
C         62.37045       59.71352       67.53873
O         63.06701       58.79221       67.94428
C         63.24141       61.54824       66.01912
C         62.46166       62.71234       66.58832
O         61.37056       63.01629       66.13520
O         62.99720       63.47065       67.56327
H         60.98400       61.01448       64.88397
H         63.25425       59.44812       65.60983
H         63.45324       61.76921       64.95190
H         64.21852       61.47876       66.54802
N         61.47191       60.30378       68.38055
C         61.39074       59.93507       69.78670
C         62.59710       60.41855       70.57631
O         62.72772       60.02952       71.72687
H         60.82914       61.02484       68.02303
H         61.28524       58.83013       69.86469
H         60.49125       60.39184       70.25355
N         63.48557       61.31493       70.04564
C         64.65025       61.85975       70.73330
C         64.28883       62.64057       71.99027
O         65.16470       62.84202       72.81906
C         65.71604       60.75709       70.97244
C         66.20664       60.12626       69.64886
C         66.97863       61.07158       68.74707
N         67.37524       60.65884       67.52194
O         67.25887       62.20393       69.11292
H         63.33414       61.65993       69.09481
H         65.11332       62.61861       70.07290
H         65.28382       59.96098       71.61446
H         66.59958       61.17238       71.50498
H         65.33011       59.73035       69.09563
H         66.87485       59.26952       69.88084
H         67.14983       59.71129       67.18690
H         67.89915       61.29439       66.90133
N         63.03961       63.17201       72.16809
C         62.66766       63.94428       73.35564
C         62.16497       65.35344       73.04613
O         62.02999       66.10995       74.00177
C         61.60120       63.17843       74.19079
C         60.32321       62.87627       73.38393
C         62.18060       61.87854       74.76275
H         62.32413       63.00814       71.44874
H         63.55989       64.08889       74.00334
H         61.31624       63.81125       75.06072
H         59.56918       62.38396       74.03306
H         59.87603       63.81166       72.98776
H         60.53100       62.19219       72.53423
H         62.48896       61.18732       73.95503
H         63.06591       62.10213       75.39507
H         61.42423       61.36745       75.39551
N         61.78991       65.77172       71.79908
C         61.14926       67.06938       71.57997
C         61.63883       67.75085       70.30726
O         62.18873       67.09359       69.43197
C         59.62198       66.82542       71.54377
C         58.77983       68.05862       71.33338
N         57.93022       68.13698       70.28131
O         58.84599       68.98343       72.12951
H         61.80694       65.10413       71.01455
H         61.37349       67.75232       72.43031
H         59.31844       66.37433       72.51426
H         59.40046       66.08345       70.74611
H         57.84675       67.35987       69.60902
H         57.34340       68.97225       70.14074
N         61.45153       69.09303       70.14621
C         61.75292       69.82984       68.92079
C         61.56664       71.32049       69.14548
O         60.49483       71.72678       69.57792
C         60.80978       69.36808       67.78217
C         60.89905       70.25105       66.55147
C         59.75389       70.92710       66.09868
C         62.11003       70.42768       65.86104
C         59.81116       71.75778       64.97981
C         62.16993       71.27353       64.74617
C         61.02228       71.94072       64.30208
O         61.09431       72.75461       63.22937
H         61.05537       69.61852       70.94168
H         62.80807       69.65060       68.61861
H         59.76530       69.38870       68.16714
H         61.03857       68.31995       67.50023
H         58.81400       70.81693       66.61506
H         63.00851       69.92382       66.19185
H         58.91324       72.26264       64.64704
H         63.10993       71.41282       64.22791
H         60.32358       73.23910       62.89923
N         62.55250       72.19829       68.79388
C         62.40109       73.64164       68.89883
C         62.38867       74.23788       67.49926
O         63.44344       74.25013       66.87750
C         63.57034       74.25588       69.70250
C         63.68129       73.70977       71.12980
C         64.86372       74.31630       71.83407
O         65.99300       74.14577       71.40056
O         64.68501       75.04501       72.95186
H         63.42470       71.83335       68.37901
H         61.46441       73.88111       69.42439
H         63.44180       75.36069       69.74713
H         64.52530       74.03881       69.17137
H         63.81492       72.60692       71.10947
H         62.75027       73.94779       71.68684
N         61.27351       74.72461       66.87579
C         59.89410       74.63747       67.35675
C         59.63662       75.39086       68.64760
O         59.99746       76.55402       68.75834
C         58.89775       75.09721       66.26324
C         58.98722       76.58065       65.86502
C         58.00203       76.88726       64.77647
O         58.08378       76.32296       63.69679
O         57.02648       77.79185       64.98497
H         61.41834       75.10004       65.92548
H         59.66158       73.56173       67.51668
H         57.86335       74.88805       66.61782
H         59.07516       74.47926       65.35880
H         60.00361       76.83235       65.49866
H         58.75480       77.22354       66.73801
N         58.95778       74.77270       69.65688
C         58.60682       75.41403       70.90604
H         57.50012       75.43462       71.00420
H         59.02844       74.82948       71.74957
H         58.98335       76.45571       70.96844
H         58.63828       73.80074       69.52747
Ca        55.44914       77.15765       62.44913
O         57.86276       78.97510       61.92349
H         58.11222       78.98793       60.96544
H         58.61464       79.42472       62.38431
O         53.56977       76.37530       64.63980
H         53.63805       77.31044       64.95830
H         52.71980       76.34678       64.13270
O         57.11403       75.95600       60.23451
H         56.86680       75.94573       59.27589
H         57.46329       75.04688       60.41293
O         53.48702       75.98292       60.52138
H         53.03588       75.48415       61.24823
H         52.88674       76.74798       60.33492
O         55.71085       74.23910       63.19378
H         55.60054       73.42326       62.64409
H         55.50371       73.94943       64.11758
O         54.78579       79.90832       63.54420
H         53.82696       79.74775       63.35587
H         55.08729       80.50119       62.81077
O         55.16866       78.99254       60.15091
H         55.61542       79.87511       60.11204
H         54.68479       78.91700       59.29088

Ca 1.0



