%chk=apoCaM-CA-Ng.loop2.water3.frame744.chk
%nprocshared=20
%mem=10GB
%nosave
#b3lyp/svp scf=(tight,noincore,xqc) Test 
#IOP(5/87=12) Density=Current Pop=(MK,readradii) iop(6/33=2) iop(6/42=6)

apoCaM-CA-Ng.loop2.water3.frame744 

   -2  1 
C         81.50100       30.66155      -12.84574
C         82.28547       31.28286      -13.96289
O         81.71982       31.55863      -15.01126
H         80.42946       30.56199      -13.12119
H         81.91234       29.65626      -12.62057
H         81.57408       31.29746      -11.93716
N         83.60354       31.57170      -13.78057
C         84.43336       32.23858      -14.77420
C         84.49215       33.70963      -14.41398
O         85.54153       34.22287      -14.04935
C         85.81570       31.55052      -14.83448
C         86.71543       32.16937      -15.87073
O         87.88973       32.71795      -15.50367
O         86.39058       32.17208      -17.04745
H         84.01757       31.38557      -12.85341
H         83.97765       32.16896      -15.78774
H         85.68218       30.47646      -15.08674
H         86.30549       31.61295      -13.83759
N         83.34974       34.44841      -14.50961
C         83.24804       35.85764      -14.16899
C         82.15965       36.04365      -13.10697
O         81.13287       35.38960      -13.22754
C         82.90255       36.66428      -15.42073
H         82.49746       33.98816      -14.86168
H         84.23450       36.20932      -13.82626
H         82.84552       37.74565      -15.16899
H         83.69864       36.52955      -16.18475
H         81.93193       36.34070      -15.85144
N         82.25379       36.90340      -12.04500
C         83.32529       37.86824      -11.84651
C         84.18488       37.54343      -10.64710
O         83.76325       36.80966       -9.76595
C         82.78655       39.30753      -11.92530
C         81.70864       39.78393      -10.98804
O         81.29193       39.14143       -9.88820
O         81.21086       40.87456      -11.21350
H         81.47924       36.91267      -11.36355
H         84.02324       37.84350      -12.69225
H         82.34572       39.39997      -12.94124
H         83.63150       40.02477      -11.85352
N         85.48924       37.94389      -10.65641
C         86.47049       37.57971       -9.65059
C         87.52475       36.65647      -10.23943
O         87.40073       36.27287      -11.39455
H         85.83153       38.49783      -11.45648
H         86.00113       37.05069       -8.79662
H         86.93524       38.51460       -9.27632
N         88.58870       36.20410       -9.51407
C         88.89223       36.60619       -8.14349
C         88.68457       35.43026       -7.20177
O         88.44085       34.32624       -7.67225
C         90.35292       37.12616       -8.08808
C         90.62683       38.31482       -8.99102
N         91.88462       38.80452       -9.10018
O         89.72590       38.83545       -9.63233
H         89.22758       35.52743       -9.96445
H         88.20807       37.40499       -7.79920
H         91.02921       36.30051       -8.40433
H         90.62134       37.41307       -7.04970
H         92.66479       38.37693       -8.58030
H         92.08349       39.60695       -9.71731
N         88.74797       35.59948       -5.84699
C         88.58508       34.49774       -4.90585
C         87.50395       34.74973       -3.87396
O         87.82884       34.73527       -2.69357
H         88.94984       36.53769       -5.46802
H         89.55310       34.35989       -4.37645
H         88.35498       33.54525       -5.42606
N         86.20270       34.98273       -4.22268
C         85.14336       35.20565       -3.22998
C         83.91532       34.32762       -3.45515
O         83.79793       33.67486       -4.48505
C         84.71237       36.69245       -3.23994
C         85.82676       37.60959       -2.73601
O         84.34449       37.07497       -4.54288
H         85.96891       35.04671       -5.22494
H         85.51459       34.96073       -2.21032
H         83.86062       36.83076       -2.53105
H         83.42218       37.43709       -4.50233
H         85.47257       38.66225       -2.73374
H         86.09767       37.33276       -1.69383
H         86.72895       37.53693       -3.37757
N         82.94037       34.29689       -2.49782
C         81.64005       33.64529       -2.62993
C         80.58212       34.71860       -2.43516
O         80.48170       35.30095       -1.36196
C         81.50327       32.47005       -1.62149
C         80.04422       31.97397       -1.40259
C         82.42035       31.31340       -2.06018
C         79.33390       31.42781       -2.63752
H         83.11313       34.80890       -1.61703
H         81.52440       33.22189       -3.65355
H         81.84106       32.83106       -0.62513
H         79.43443       32.81058       -1.00029
H         80.04712       31.17777       -0.62685
H         82.36548       30.47410       -1.33681
H         82.12556       30.93530       -3.06404
H         83.47513       31.65228       -2.12516
H         78.29264       31.14706       -2.36987
H         79.29003       32.19612       -3.43214
H         79.84404       30.51804       -3.00992
N         79.81031       35.07219       -3.49166
C         78.87490       36.18147       -3.52434
C         77.52935       35.79719       -4.14207
O         76.66305       36.65797       -4.19664
C         79.55159       37.37366       -4.23134
C         80.25413       37.04249       -5.52165
O         79.97687       37.74296       -6.62263
O         81.20022       36.27082       -5.53762
H         79.98800       34.59355       -4.37697
H         78.64718       36.53421       -2.49275
H         80.34256       37.76284       -3.55324
H         78.81890       38.19762       -4.37941
N         77.24312       34.51902       -4.54414
C         75.88711       34.07279       -4.83852
C         75.89390       33.00119       -5.93489
O         75.54389       31.86292       -5.65842
C         75.27792       33.63376       -3.48443
C         73.87276       33.08565       -3.53794
C         72.83541       33.77854       -4.18756
C         73.58449       31.87052       -2.89151
C         71.53919       33.25276       -4.20087
C         72.28534       31.35889       -2.89275
C         71.26389       32.04657       -3.55087
H         77.94340       33.78062       -4.41179
H         75.25818       34.91272       -5.19909
H         75.25258       34.53540       -2.83283
H         75.95354       32.89717       -2.99490
H         73.02360       34.71849       -4.68869
H         74.36138       31.32692       -2.36756
H         70.74576       33.78352       -4.71053
H         72.07153       30.43047       -2.37922
H         70.25864       31.64628       -3.55294
N         76.24888       33.30219       -7.22722
C         76.24428       32.35586       -8.34600
C         77.08919       31.11744       -8.13392
O         76.78071       30.07570       -8.69576
C         76.89130       33.15898       -9.48206
C         76.41907       34.55787       -9.18844
C         76.60339       34.63474       -7.67614
H         75.18989       32.08784       -8.58140
H         77.99821       33.17549       -9.34769
H         76.66983       32.77379      -10.50034
H         76.92872       35.36337       -9.75778
H         75.32855       34.58809       -9.41552
H         77.65639       34.84025       -7.38349
H         75.92792       35.42889       -7.29599
N         78.21402       31.19330       -7.37543
C         79.14380       30.10063       -7.15487
C         78.38818       28.92083       -6.57645
O         78.46241       27.83979       -7.14428
C         80.31986       30.51286       -6.22393
C         81.37694       31.47538       -6.82765
C         81.07494       32.95180       -6.91829
O         81.90851       33.69046       -7.41228
O         79.96234       33.49830       -6.41363
H         78.38339       32.07673       -6.90793
H         79.59180       29.78441       -8.12416
H         80.88266       29.57253       -6.02951
H         79.95909       30.88830       -5.25203
H         81.65456       31.10087       -7.83522
H         82.28145       31.41640       -6.18337
N         77.58100       29.07921       -5.49046
C         76.75346       28.01701       -4.95461
H         75.68482       28.30335       -5.05822
H         76.90210       27.05259       -5.48532
H         76.98577       27.87003       -3.88086
H         77.50647       30.00836       -5.05032
Ca        81.32983       37.50388       -8.39193
O         80.72386       34.58255      -10.10757
H         80.18655       34.22234       -9.35975
H         80.05146       34.82795      -10.79070
O         83.67151       38.96701       -7.00449
H         83.00691       39.18991       -6.30493
H         83.54766       39.66590       -7.69473
O         84.50153       35.46088       -7.37395
H         85.06778       34.78827       -7.82916
H         83.97706       34.94112       -6.71793

Ca 1.0



