%chk=apoCaM-CA-Ng.loop3.water5.frame1100.chk
%nprocshared=20
%mem=10GB
%nosave
#b3lyp/svp scf=(tight,noincore,xqc) Test 
#IOP(5/87=12) Density=Current Pop=(MK,readradii) iop(6/33=2) iop(6/42=6)

apoCaM-CA-Ng.loop3.water5.frame1100 

   0  1 
C         42.49962       90.04566       35.11286
C         43.70553       90.92489       34.94740
O         43.60023       92.11662       35.19403
H         41.68348       90.40129       34.45002
H         42.72791       88.98938       34.85606
H         42.15534       90.08429       36.16774
N         44.89221       90.39829       34.53420
C         46.11200       91.18146       34.35984
C         46.60974       91.14717       32.92128
O         47.67722       91.68721       32.67165
C         47.20616       90.70210       35.34162
C         47.68962       89.29615       35.10268
O         46.93673       88.34625       35.24027
O         48.97688       89.07855       34.77136
H         44.93106       89.38839       34.33316
H         45.92912       92.24989       34.60729
H         46.82915       90.78429       36.38365
H         48.07651       91.38935       35.25048
N         45.89440       90.55462       31.91589
C         46.34075       90.48995       30.52625
C         46.40689       91.86481       29.85566
O         46.87123       91.94196       28.72653
C         47.64607       89.66378       30.39971
C         47.47423       88.28904       31.07787
C         48.66130       87.34953       30.82849
C         48.50022       85.99789       31.55366
N         48.64932       86.12359       33.00598
H         44.98889       90.11091       32.12242
H         45.58282       89.92216       29.95078
H         48.51163       90.19072       30.85377
H         47.86458       89.51739       29.31874
H         46.55891       87.79394       30.68364
H         47.34359       88.45767       32.16453
H         49.61777       87.82179       31.13924
H         48.70709       87.15300       29.73495
H         49.28817       85.30565       31.18515
H         47.51202       85.54743       31.30829
H         48.55173       85.17923       33.44365
H         49.59819       86.50034       33.23482
H         47.91526       86.74242       33.41076
N         45.87810       92.97616       30.45355
C         45.82811       94.30486       29.84651
C         46.53672       95.33954       30.72089
O         46.44247       96.52443       30.43164
C         44.35056       94.70784       29.66879
C         43.58983       93.70403       28.85200
O         42.53375       93.07045       29.39510
O         43.92035       93.45858       27.70237
H         45.42984       92.88946       31.37645
H         46.30695       94.31411       28.84205
H         44.28404       95.69542       29.16237
H         43.86803       94.79314       30.66713
N         47.28604       94.96273       31.79464
C         47.94522       95.90065       32.68619
C         48.89480       95.13323       33.58813
O         49.81203       94.53741       33.04146
H         47.41664       93.96384       31.98025
H         47.17341       96.48314       33.22539
H         48.55634       96.61920       32.09929
N         48.78463       95.04033       34.94514
C         47.77006       95.68228       35.77099
C         47.55791       94.84991       37.03084
O         48.53390       94.57783       37.71851
C         48.22628       97.12080       36.10016
C         47.19245       97.92872       36.85602
N         46.85945       97.63937       38.13710
O         46.66367       98.88133       36.30263
H         49.49939       94.46823       35.42378
H         46.82092       95.74596       35.21051
H         48.41685       97.63279       35.13173
H         49.18156       97.11485       36.66896
H         47.30995       96.86967       38.64960
H         46.15745       98.20821       38.63353
N         46.33187       94.42145       37.44740
C         45.08571       94.77324       36.77637
C         43.86066       94.34174       37.55142
O         43.98131       93.70118       38.58468
H         46.30385       93.87368       38.32021
H         45.05925       94.33576       35.75667
H         45.02936       95.87977       36.70301
N         42.62385       94.72088       37.11333
C         41.40606       94.43659       37.86598
C         40.43146       93.62964       37.02298
O         40.58805       93.57121       35.81205
C         40.78843       95.78550       38.29618
C         39.72166       95.65387       39.35045
C         38.39048       96.00972       39.08306
C         40.06872       95.20049       40.63403
C         37.41986       95.90279       40.08482
C         39.10062       95.10279       41.63468
C         37.77084       95.45234       41.36286
O         36.82685       95.36475       42.32118
H         42.55079       95.27512       36.24686
H         41.66196       93.84151       38.76703
H         40.40484       96.30466       37.38915
H         41.58007       96.43592       38.73102
H         38.10315       96.36790       38.10262
H         41.09405       94.93749       40.86410
H         36.39494       96.17627       39.86926
H         39.38758       94.76047       42.62101
H         37.03293       95.06573       43.21856
N         39.40533       92.94823       37.61330
C         38.42849       92.18460       36.83318
C         37.55859       93.09376       35.97457
O         37.61084       94.30888       36.11757
C         37.52864       91.25749       37.72050
C         38.33412       90.03484       38.21847
C         36.82519       92.01021       38.87314
C         37.44574       88.94075       38.81891
H         39.35920       92.95223       38.63941
H         38.98621       91.53140       36.12536
H         36.73690       90.84217       37.06213
H         39.11539       90.34272       38.94530
H         38.83927       89.56964       37.34293
H         36.26497       92.88607       38.48672
H         36.09645       91.35235       39.38775
H         37.54368       92.35898       39.64309
H         36.93948       89.28427       39.74218
H         36.67926       88.62242       38.07793
H         38.06633       88.05601       39.07256
N         36.72527       92.53924       35.04477
C         35.81832       93.30235       34.19535
C         36.12324       93.08005       32.72200
O         36.98231       92.27063       32.39730
C         34.37441       92.88474       34.51747
O         34.20056       91.51488       34.26644
H         36.72360       91.51272       34.93601
H         35.92256       94.39048       34.39844
H         33.65432       93.46676       33.90371
H         34.18592       93.10019       35.59417
H         33.35406       91.25214       34.71208
N         35.44255       93.79104       31.77097
C         35.65091       93.68446       30.32725
C         35.21743       92.34473       29.74091
O         35.42700       92.14496       28.55229
C         37.10800       94.01576       29.96526
H         34.74765       94.48431       32.08698
H         35.02168       94.45470       29.82925
H         37.81997       93.25851       30.35079
H         37.22205       94.06124       28.86274
H         37.38304       95.01004       30.37528
N         34.59301       91.38796       30.49194
C         34.21226       90.07113       29.99456
C         35.44757       89.33083       29.53309
O         35.50409       88.84970       28.40856
C         33.11957       90.16032       28.91662
H         34.39230       91.56942       31.48384
H         33.78180       89.49628       30.84518
H         32.80413       89.13876       28.61243
H         32.23272       90.69120       29.32168
H         33.47395       90.69594       28.01242
N         36.50836       89.23618       30.37939
C         37.74380       88.55861       30.02797
C         37.46298       87.08156       29.84011
O         37.78214       86.54343       28.78942
C         38.80986       88.81399       31.11945
C         40.20035       88.26935       30.75424
C         40.73621       88.89440       29.49465
O         40.92970       90.22545       29.42220
O         40.99455       88.19621       28.52764
H         36.43581       89.68597       31.30574
H         38.13089       89.00146       29.08320
H         38.48130       88.36851       32.08350
H         38.90464       89.91290       31.27196
H         40.14710       87.16585       30.63782
H         40.90583       88.49593       31.58236
N         36.80961       86.38207       30.81179
C         36.44586       84.98530       30.68995
H         35.33880       84.89374       30.71541
H         36.81154       84.53233       29.74502
H         36.87066       84.41815       31.54351
H         36.51661       86.87091       31.67135
Ca        41.73032       91.11600       27.50324
O         39.99739       89.96332       25.44757
H         39.99205       90.15068       24.47557
H         39.10483       89.57988       25.63685
O         41.00271       93.22308       25.29299
H         41.00135       93.17554       24.30412
H         40.13388       93.63863       25.52223
O         43.27842       90.42427       24.97442
H         43.74138       90.61620       24.12094
H         42.71367       89.63473       24.77930
O         38.97106       92.01336       27.68879
H         38.38461       91.67584       28.41107
H         38.48904       92.78995       27.30984
O         43.96924       89.28485       28.08042
H         43.62681       88.67885       27.37724
H         43.68886       88.86205       28.93089

Ca 1.0



