%chk=apoCaM-CA-Ng.loop3.water5.frame84.chk
%nprocshared=20
%mem=10GB
%nosave
#b3lyp/svp scf=(tight,noincore,xqc) Test 
#IOP(5/87=12) Density=Current Pop=(MK,readradii) iop(6/33=2) iop(6/42=6)

apoCaM-CA-Ng.loop3.water5.frame84 

   0  1 
C         62.89833       77.93104       95.32255
C         63.70612       79.18606       95.19309
O         64.31452       79.37271       94.15305
H         62.11923       77.90644       94.53187
H         63.56826       77.05343       95.19705
H         62.40835       77.86335       96.31534
N         63.77136       80.09116       96.21478
C         64.57444       81.31400       96.17933
C         66.06660       80.99521       96.09563
O         66.84018       81.84749       95.68086
C         64.10888       82.26688       95.04663
C         62.65490       82.65762       95.15005
O         62.17687       83.41076       94.31732
O         61.87197       82.19797       96.14654
H         63.23742       79.90168       97.07637
H         64.43066       81.86408       97.13556
H         64.28029       81.80539       94.05276
H         64.70951       83.20146       95.08936
N         66.54508       79.78508       96.51617
C         67.95643       79.40166       96.45372
C         68.49282       79.28190       95.02981
O         69.67862       79.00617       94.88320
C         68.19181       78.05788       97.18865
C         67.44067       76.86216       96.56327
C         67.89086       75.54406       97.19994
C         67.17346       74.34830       96.55950
N         67.72829       73.08684       97.04839
H         65.88219       79.12263       96.93739
H         68.54913       80.17893       96.98391
H         67.89649       78.15833       98.25562
H         69.28445       77.84820       97.16482
H         67.66721       76.80501       95.47713
H         66.34312       76.97993       96.68509
H         67.69514       75.55369       98.29502
H         68.98480       75.43685       97.03309
H         67.29839       74.38553       95.45442
H         66.08554       74.39839       96.79056
H         68.74003       73.02288       96.78826
H         67.62672       73.02059       98.08676
H         67.21881       72.29142       96.60041
N         67.69811       79.44782       93.93881
C         68.14972       79.28549       92.56978
C         68.10506       80.63699       91.88529
O         67.35573       81.50658       92.31665
C         67.25524       78.21194       91.92772
C         67.64772       77.76933       90.55386
O         67.55873       78.58980       89.49332
O         67.95373       76.60121       90.37122
H         66.70954       79.69091       94.05807
H         69.20230       78.92555       92.54998
H         66.20174       78.55302       91.90733
H         67.29438       77.31514       92.58748
N         68.94866       80.91276       90.85535
C         69.07473       82.22333       90.24003
C         67.74381       82.78092       89.80567
O         67.42918       83.89409       90.20322
H         69.56651       80.16482       90.50749
H         69.75952       82.14862       89.36927
H         69.53427       82.92893       90.97015
N         66.88375       82.04315       89.04597
C         65.55777       82.53425       88.67254
C         64.44010       81.82858       89.43013
O         63.30676       82.28109       89.32960
C         65.33670       82.44178       87.15158
C         65.13782       81.01788       86.67539
N         63.96289       80.64240       86.11815
O         66.03018       80.19492       86.80404
H         67.16569       81.09025       88.78114
H         65.48244       83.60841       88.94942
H         66.18738       82.91500       86.61508
H         64.42489       83.02862       86.90777
H         63.19053       81.31496       86.00601
H         63.81736       79.67147       85.80664
N         64.66796       80.73742       90.21811
C         63.63281       80.11596       91.02638
C         62.49160       79.51808       90.23816
O         62.49725       79.52430       89.01497
H         65.61668       80.34942       90.30003
H         63.22802       80.88164       91.72286
H         64.07299       79.29793       91.62748
N         61.43339       79.00853       90.92849
C         60.22812       78.48805       90.29217
C         60.49203       77.15007       89.60000
O         61.58019       76.60483       89.72547
C         59.11332       78.39043       91.36769
C         57.74383       78.06623       90.82595
C         57.12791       78.91329       89.88627
C         57.06729       76.91411       91.25592
C         55.86778       78.59755       89.37113
C         55.80665       76.60248       90.74151
C         55.20457       77.44105       89.79319
O         53.99192       77.14665       89.28369
H         61.46188       79.07534       91.95848
H         59.90790       79.23444       89.53279
H         59.02888       79.37610       91.87593
H         59.42428       77.64380       92.13179
H         57.62530       79.81202       89.54443
H         57.51652       76.25294       91.98591
H         55.40808       79.25180       88.64108
H         55.30019       75.70785       91.07939
H         53.50355       76.35349       89.54661
N         59.52964       76.58629       88.81536
C         59.68711       75.35042       88.06049
C         59.65634       75.75071       86.59838
O         60.66526       75.60238       85.92538
C         58.56908       74.33367       88.46504
C         58.73520       73.93075       89.95435
C         58.58166       73.08425       87.56374
C         57.56324       73.11703       90.51325
H         58.64272       77.08768       88.68761
H         60.67686       74.88175       88.26337
H         57.58248       74.83392       88.34338
H         58.80832       74.84428       90.57570
H         59.67918       73.35846       90.08725
H         57.74675       72.39898       87.81480
H         58.43690       73.36505       86.50510
H         59.54240       72.53677       87.65811
H         57.44827       72.14292       89.99864
H         57.74131       72.90789       91.58948
H         56.61830       73.69216       90.42133
N         58.54319       76.32329       86.05804
C         58.49208       76.87803       84.70888
C         58.89334       75.86899       83.65276
O         59.65009       76.23952       82.76590
C         57.10338       77.45950       84.41097
O         56.80785       78.46058       85.34806
H         57.70134       76.40427       86.64805
H         59.20910       77.72894       84.65014
H         56.33905       76.65275       84.46212
H         57.11351       77.90768       83.39131
H         55.90556       78.80220       85.11808
N         58.49949       74.56246       83.72369
C         58.92755       73.53995       82.77333
C         60.44670       73.53828       82.64305
O         60.95317       73.79393       81.55754
C         58.22879       73.76115       81.42223
H         57.90494       74.26649       84.51000
H         58.59746       72.54271       83.14014
H         58.51230       72.95414       80.71270
H         57.12705       73.73151       81.55907
H         58.50402       74.73968       80.97623
N         61.24516       73.28722       83.72155
C         62.69829       73.42545       83.64638
C         63.38553       72.90501       84.89033
O         63.05518       73.34010       85.98540
C         63.08530       74.90349       83.47078
H         60.80350       73.01353       84.61367
H         63.07606       72.85360       82.77075
H         64.19026       75.00037       83.40259
H         62.65011       75.33286       82.54696
H         62.73476       75.50713       84.33439
N         64.40723       72.00321       84.77326
C         65.20616       71.51234       85.88981
C         64.33080       70.71623       86.83362
O         64.22865       71.04189       88.00869
C         65.97862       72.67587       86.56264
C         66.94630       73.34503       85.56735
C         67.58743       74.55581       86.17127
O         66.81861       75.61006       86.49596
O         68.79291       74.59852       86.35792
H         64.66694       71.66588       83.83406
H         65.96982       70.80214       85.49945
H         66.57213       72.28717       87.42028
H         65.26702       73.42593       86.96496
H         66.40739       73.68135       84.65669
H         67.72093       72.60508       85.26932
N         63.66728       69.62787       86.35135
C         62.80513       68.78558       87.15271
H         61.78356       68.79269       86.71836
H         63.19344       67.74548       87.13632
H         62.74393       69.12380       88.20768
H         63.77814       69.37682       85.35679
Ca        67.64061       77.37837       87.60810
O         66.02859       77.88590       84.65814
H         65.91212       77.11717       84.04541
H         65.31512       77.77163       85.33450
O         68.66459       80.90188       86.10483
H         69.57526       81.28358       86.16448
H         68.16386       81.53931       85.53638
O         69.45693       78.13066       84.88555
H         68.81770       78.33470       84.15750
H         70.16615       78.81525       84.79088
O         64.70155       77.18965       88.27599
H         64.13398       76.93151       87.50696
H         64.69068       78.17941       88.27232
O         70.36883       78.75760       88.12990
H         70.78601       78.73959       89.02730
H         70.64870       79.62490       87.74413

Ca 1.0



