%chk=apoCaM-CA-Ng.loop1.water3.frame247.chk
%nprocshared=20
%mem=10GB
%nosave
#b3lyp/svp scf=(tight,noincore,xqc) Test 
#IOP(5/87=12) Density=Current Pop=(MK,readradii) iop(6/33=2) iop(6/42=6)

apoCaM-CA-Ng.loop1.water3.frame247 

   0  1 
C         51.15075        4.58035       88.83830
C         50.37179        3.49024       89.51141
O         49.76074        3.72694       90.54385
H         52.21815        4.28330       88.76497
H         50.75083        4.74047       87.81394
H         51.07652        5.53161       89.40494
N         50.34238        2.25198       88.95330
C         49.57954        1.13867       89.50417
C         50.16525        0.59033       90.80479
O         49.62370       -0.39422       91.26019
C         49.53796       -0.04145       88.48843
C         48.84193        0.28455       87.19350
O         47.73613       -0.39949       86.83984
O         49.28634        1.13414       86.43926
H         50.85567        2.11638       88.06890
H         48.52796        1.45922       89.67906
H         48.97313       -0.88597       88.93897
H         50.56930       -0.39925       88.27441
N         51.28462        1.07037       91.42435
C         51.98201        0.28994       92.45477
C         52.13056        1.02486       93.78148
O         52.49681        2.19066       93.73605
C         53.35806       -0.10520       91.88891
C         53.17863       -0.89173       90.57066
C         54.46702       -1.52455       90.03112
C         55.09700       -2.57820       90.96411
N         54.18335       -3.68551       91.25822
H         51.75006        1.91867       91.07379
H         51.46954       -0.66318       92.64232
H         53.85976       -0.73326       92.64750
H         53.99365        0.78931       91.70507
H         52.78332       -0.20405       89.79105
H         52.41883       -1.68757       90.70613
H         55.21120       -0.72470       89.82877
H         54.22216       -2.01630       89.06396
H         55.43216       -2.10839       91.91229
H         56.00194       -2.98413       90.46298
H         53.34725       -3.34943       91.77921
H         53.87664       -4.15223       90.37480
H         54.67306       -4.38133       91.86485
N         51.96471        0.44212       95.02358
C         51.62569       -0.95658       95.34862
C         52.62320       -1.92551       94.74505
O         52.27074       -2.66150       93.83784
C         50.14603       -1.28676       95.06941
C         49.25171       -0.48645       95.97551
O         49.78310        0.39712       96.84478
O         48.04128       -0.60575       95.90021
H         52.15008        1.04894       95.83803
H         51.70680       -1.11065       96.44750
H         49.95258       -2.35733       95.27748
H         49.88035       -1.09224       94.01731
N         53.90590       -2.00431       95.20309
C         54.32724       -1.33726       96.42666
C         55.81295       -1.43665       96.70853
O         56.56813       -1.85554       95.84379
H         54.56127       -2.63111       94.71226
H         53.76365       -1.81084       97.26031
H         54.08803       -0.25541       96.38887
N         56.33526       -1.03496       97.90533
C         55.50683       -0.69255       99.05918
C         55.03804       -1.96165       99.76049
O         55.50475       -3.04669       99.44029
C         56.24099        0.27905      100.01169
C         57.54188       -0.26314      100.54209
O         57.56174       -1.37798      101.29665
O         58.58861        0.31584      100.29713
H         57.35602       -1.10700       98.03408
H         54.60618       -0.14096       98.71243
H         55.58573        0.53716      100.87162
H         56.44345        1.22049       99.45419
N         54.07655       -1.89038      100.71738
C         53.56186       -3.04201      101.43922
C         52.92690       -4.08553      100.53909
O         53.21669       -5.26297      100.69661
H         53.67511       -0.96802      100.94765
H         52.76939       -2.67848      102.13085
H         54.36171       -3.49927      102.06099
N         51.99125       -3.72132       99.62144
C         51.16458       -4.67598       98.87897
C         51.97832       -5.56138       97.94014
O         52.61964       -5.04208       97.03651
C         50.07349       -3.93879       98.06015
C         49.17216       -3.06295       98.94145
O         49.26901       -4.88950       97.41263
H         51.82155       -2.71241       99.50825
H         50.63639       -5.31547       99.62037
H         50.58327       -3.29855       97.30562
H         48.70697       -4.39725       96.75899
H         48.66382       -3.68429       99.70756
H         49.73845       -2.26135       99.44925
H         48.40557       -2.56648       98.31062
N         51.95593       -6.92348       98.07779
C         52.65175       -7.82504       97.15305
C         52.05139       -7.80493       95.74495
O         52.69901       -8.32404       94.84380
C         52.73159       -9.29404       97.68633
C         51.33207       -9.95390       97.84758
C         53.54545       -9.33424       98.99378
C         51.39467      -11.43962       98.21786
H         51.43980       -7.31997       98.87470
H         53.69846       -7.45573       97.06650
H         53.30117       -9.88658       96.93452
H         50.78544       -9.88767       96.88297
H         50.73278       -9.42770       98.61887
H         53.72361      -10.37588       99.32745
H         54.54469       -8.87696       98.83165
H         53.03007       -8.78350       99.80748
H         50.36449      -11.85140       98.27115
H         51.96094      -12.00681       97.44888
H         51.86401      -11.59542       99.21006
N         50.82632       -7.26104       95.47621
C         50.25209       -7.17960       94.13133
C         49.94329       -5.73845       93.76860
O         50.02391       -4.87205       94.62893
C         48.97283       -8.05116       94.01462
C         47.85927       -7.63648       94.98757
O         49.29116       -9.39803       94.24815
H         50.27022       -6.88681       96.25599
H         50.98542       -7.55155       93.38220
H         48.54905       -7.94450       92.98741
H         49.65551       -9.75899       93.39771
H         46.96197       -8.26940       94.82023
H         48.17739       -7.77088       96.04199
H         47.56684       -6.57731       94.83037
N         49.59929       -5.39892       92.49396
C         49.26577       -4.02394       92.12870
C         47.86150       -3.64946       92.60822
O         47.08715       -4.52641       92.96514
C         49.44801       -3.76472       90.60982
C         48.51639       -4.58422       89.70834
O         50.78446       -4.02430       90.25925
H         49.63652       -6.13089       91.76920
H         49.99868       -3.35649       92.63425
H         49.22185       -2.69281       90.43348
H         51.00887       -3.43190       89.49383
H         48.71022       -5.67168       89.79948
H         47.45416       -4.37874       89.95314
H         48.68915       -4.29803       88.64841
N         47.48509       -2.33808       92.65551
C         46.15082       -1.87797       93.04389
C         46.05899       -0.39865       93.48474
O         44.95671        0.01013       93.82585
C         45.18176       -2.10570       91.85672
C         45.47084       -1.12298       90.69486
C         44.53524       -1.27936       89.49302
C         44.78495       -2.57666       88.71568
N         43.93933       -2.63322       87.52433
H         48.19427       -1.66823       92.39869
H         45.82550       -2.48231       93.91971
H         44.13713       -1.94108       92.20091
H         45.26138       -3.15946       91.51887
H         46.52556       -1.21123       90.35538
H         45.31965       -0.08635       91.06568
H         44.73307       -0.42726       88.80582
H         43.47524       -1.21477       89.82488
H         44.57443       -3.45879       89.35614
H         45.85300       -2.61203       88.40346
H         42.93029       -2.62119       87.79901
H         44.14378       -1.81925       86.89928
H         44.14171       -3.51634       87.00323
N         47.12036        0.46664       93.50617
C         46.99367        1.87762       93.86319
C         46.24236        2.61893       92.77972
O         46.69890        2.64416       91.64412
C         48.39518        2.49640       94.07479
C         48.42524        4.00813       94.37416
C         47.49076        4.51069       95.45757
O         46.69135        5.38925       95.17791
O         47.52656        4.05924       96.72977
H         48.06214        0.13896       93.28201
H         46.46205        1.95658       94.83735
H         49.02940        2.32415       93.17612
H         48.88033        1.95693       94.90363
H         48.17564        4.54595       93.43330
H         49.47076        4.27777       94.63838
N         45.08418        3.26932       93.07018
C         44.36095        4.02964       92.07582
H         43.45170        4.47671       92.53046
H         45.00339        4.85027       91.69001
H         44.05663        3.36944       91.23658
H         44.70857        3.23747       94.03002
Ca        48.60381        2.20754       97.36136
O         47.35012        3.45735      100.14567
H         46.39532        3.43081       99.88456
H         47.39304        2.93149      100.98360
O         48.44000        0.12016      100.05425
H         49.13795       -0.23695      100.65887
H         47.78419       -0.61696       99.96956
O         46.09291        1.01441       98.12027
H         45.15483        0.99143       97.80768
H         46.45310        0.12068       97.89403

Ca 1.0



