%chk=apoCaM-CA-Ng.loop2.water3.frame822.chk
%nprocshared=20
%mem=10GB
%nosave
#b3lyp/svp scf=(tight,noincore,xqc) Test 
#IOP(5/87=12) Density=Current Pop=(MK,readradii) iop(6/33=2) iop(6/42=6)

apoCaM-CA-Ng.loop2.water3.frame822 

   -2  1 
C         44.77856       84.74429       85.66592
C         45.68141       83.55449       85.80532
O         45.28122       82.56362       86.40047
H         43.79899       84.55710       86.15555
H         45.25155       85.62985       86.13978
H         44.60483       84.95590       84.58985
N         46.93638       83.58723       85.27368
C         47.88228       82.47821       85.39161
C         47.46738       81.25388       84.55311
O         48.16626       80.25249       84.60108
C         49.29564       82.97149       84.99554
C         50.42677       82.06375       85.41999
O         50.20657       80.95022       86.14690
O         51.57451       82.37499       85.14699
H         47.24178       84.46099       84.81600
H         47.92747       82.20256       86.46939
H         49.48849       83.94260       85.50311
H         49.32894       83.14134       83.89750
N         46.33155       81.24149       83.79056
C         45.85967       80.07478       83.05073
C         45.34669       80.49691       81.67458
O         44.55400       81.42866       81.63546
C         44.70631       79.44446       83.83160
H         45.71487       82.06283       83.78437
H         46.63679       79.29256       83.01005
H         43.86748       80.15984       83.96033
H         44.33606       78.54158       83.30137
H         45.06681       79.13011       84.83494
N         45.64179       79.86596       80.49815
C         46.43977       78.65451       80.33734
C         47.30604       78.72185       79.08709
O         47.22271       79.68048       78.33263
C         45.50598       77.42116       80.35030
C         44.32778       77.54172       79.42202
O         43.07774       77.52165       79.92301
O         44.48961       77.66168       78.22210
H         45.13652       80.20178       79.66145
H         47.16216       78.53710       81.16283
H         45.10144       77.31206       81.37798
H         46.07339       76.49538       80.11903
N         48.21899       77.73615       78.85095
C         49.14579       77.72911       77.73056
C         49.14286       76.38233       77.04051
O         50.13905       75.68343       77.16011
H         48.31219       76.97606       79.54205
H         50.16123       77.88590       78.15628
H         48.96598       78.55037       77.00771
N         48.09576       75.89713       76.31494
C         46.87302       76.62438       76.00588
C         47.12162       77.51177       74.79330
O         47.37831       76.98709       73.71820
C         45.75805       75.57920       75.76298
C         44.37307       76.09350       75.50571
N         43.37189       75.19970       75.33046
O         44.14073       77.28989       75.46578
H         48.19598       74.94273       75.93172
H         46.57455       77.22757       76.88325
H         45.69216       74.94383       76.67380
H         46.04195       74.93137       74.90573
H         43.56063       74.18816       75.36762
H         42.40569       75.49810       75.16573
N         47.12873       78.87205       74.90885
C         47.47293       79.76388       73.80920
C         46.39197       79.91548       72.75702
O         46.64225       80.60927       71.78197
H         46.97826       79.29427       75.83407
H         48.41984       79.41236       73.34277
H         47.66025       80.78174       74.21403
N         45.16623       79.33417       72.88687
C         44.09275       79.46644       71.90521
C         42.86935       80.12426       72.53755
O         42.89928       80.46265       73.71268
C         43.76185       78.06909       71.32475
C         44.94761       77.48694       70.55303
O         43.41112       77.18178       72.35609
H         44.96860       78.76811       73.71893
H         44.40002       80.12070       71.05991
H         42.93559       78.15548       70.58102
H         42.43793       77.01338       72.28084
H         45.22344       78.16081       69.71358
H         45.82886       77.35400       71.21491
H         44.67038       76.49754       70.13135
N         41.74711       80.33513       71.79011
C         40.52157       80.95014       72.29089
C         39.45715       79.87047       72.34510
O         39.15827       79.24893       71.33539
C         40.14105       82.16204       71.39542
C         38.71657       82.72250       71.65300
C         41.20385       83.26831       71.53863
C         38.46184       83.25556       73.06241
H         41.74337       80.02162       70.80846
H         40.66876       81.32998       73.32539
H         40.14043       81.82080       70.33629
H         37.97156       81.92480       71.44371
H         38.52190       83.54504       70.93023
H         41.25939       83.63333       72.58671
H         42.20889       82.88668       71.26199
H         40.96597       84.12523       70.87461
H         38.60812       82.45754       73.81269
H         39.12669       84.10914       73.30026
H         37.41111       83.61016       73.12788
N         38.89856       79.56295       73.54768
C         38.02814       78.42530       73.80389
C         36.67089       78.85564       74.34457
O         35.89058       77.98636       74.71150
C         38.78876       77.50596       74.77839
C         40.04761       77.03349       74.10064
O         39.96641       76.32958       73.10626
O         41.26597       77.41952       74.52439
H         39.16609       80.12030       74.36859
H         37.82538       77.84612       72.87510
H         38.18434       76.61733       75.06122
H         39.03658       78.07056       75.70368
N         36.27783       80.16362       74.31971
C         34.93267       80.62018       74.64405
C         34.98724       81.86514       75.54158
O         35.66585       82.80813       75.15250
C         34.24437       81.00152       73.31757
C         32.84456       81.51240       73.54455
C         32.56696       82.87738       73.37262
C         31.81544       80.64492       73.94949
C         31.28498       83.37167       73.61742
C         30.52984       81.14261       74.18496
C         30.26648       82.50587       74.02312
H         36.91654       80.86800       73.92859
H         34.34917       79.79652       75.09809
H         34.21152       80.13398       72.62150
H         34.86151       81.78696       72.82751
H         33.34937       83.56204       73.06966
H         32.00877       79.58747       74.08495
H         31.08494       84.42787       73.49674
H         29.73899       80.47338       74.49817
H         29.27431       82.89271       74.21322
N         34.25781       82.00620       76.69826
C         34.14863       83.26561       77.44402
C         35.39807       83.76832       78.15962
O         35.27784       84.72985       78.90669
C         33.04743       82.98463       78.47321
C         32.18271       81.98818       77.73587
C         33.25034       81.06854       77.16169
H         33.78058       84.04681       76.73995
H         33.47948       82.44917       79.35030
H         32.52355       83.89572       78.83533
H         31.42187       81.47945       78.36358
H         31.66952       82.51458       76.89661
H         33.68812       80.44345       77.97125
H         32.79506       80.42869       76.38856
N         36.61986       83.18802       77.99486
C         37.82395       83.59263       78.72493
C         38.22102       85.06253       78.59466
O         39.13774       85.46026       79.30237
C         39.00923       82.69983       78.30189
C         39.39779       82.90430       76.82267
C         40.43441       81.91230       76.42096
O         41.63364       82.31397       75.96031
O         40.18024       80.72496       76.50048
H         36.69281       82.37862       77.36828
H         37.61850       83.41260       79.80311
H         38.71224       81.64024       78.46997
H         39.89565       82.90615       78.94089
H         39.77886       83.93496       76.65948
H         38.52231       82.75074       76.16073
N         37.60766       85.93351       77.74484
C         37.98023       87.33172       77.70063
H         39.04767       87.43490       77.41202
H         37.35198       87.87138       76.96160
H         37.82332       87.79392       78.69995
H         36.85846       85.61866       77.11463
Ca        41.80882       78.64758       76.33273
O         40.83342       76.49712       78.02953
H         40.89425       76.00042       77.17528
H         40.02287       77.05774       77.93273
O         44.53862       80.57517       76.33019
H         44.28250       81.37139       76.85910
H         44.90011       79.94345       76.99962
O         41.69729       80.12333       79.05015
H         41.07305       79.43856       79.39927
H         41.43230       80.95827       79.51048

Ca 1.0



