%chk=apoCaM-CA-Ng.loop3.water3.frame504.chk
%nprocshared=20
%mem=10GB
%nosave
#b3lyp/svp scf=(tight,noincore,xqc) Test 
#IOP(5/87=12) Density=Current Pop=(MK,readradii) iop(6/33=2) iop(6/42=6)

apoCaM-CA-Ng.loop3.water3.frame504 

   0  1 
C         69.37514       48.22809       60.44208
C         69.55156       48.00292       61.91316
O         68.63226       47.53195       62.56796
H         69.50007       49.30837       60.21721
H         70.14149       47.65058       59.88325
H         68.36652       47.90502       60.10923
N         70.73675       48.31561       62.50122
C         70.99224       48.13448       63.92347
C         70.07842       49.05591       64.72268
O         70.09738       50.25854       64.49931
C         72.48442       48.40317       64.20900
C         72.91631       48.08722       65.61573
O         74.08822       48.22368       65.92500
O         72.03914       47.64637       66.53700
H         71.49112       48.68557       61.90073
H         70.80579       47.06744       64.18210
H         72.72129       49.45980       63.96904
H         73.08722       47.75306       63.53803
N         69.23603       48.54254       65.66238
C         68.27652       49.33868       66.42884
C         68.95255       50.47933       67.18493
O         68.42434       51.58209       67.16701
C         67.45559       48.40131       67.35064
C         66.32605       49.11017       68.11939
C         65.41803       48.08531       68.82169
C         64.30482       48.76840       69.62913
N         63.41481       47.77894       70.23962
H         69.26950       47.52426       65.83012
H         67.54750       49.78936       65.71846
H         68.12018       47.87896       68.07115
H         66.98773       47.63368       66.69328
H         65.70222       49.69525       67.40905
H         66.76895       49.80417       68.86627
H         66.02344       47.45735       69.50579
H         64.95456       47.42757       68.05247
H         63.70756       49.42885       68.96222
H         64.76176       49.39425       70.42754
H         62.68273       48.27369       70.79905
H         62.94218       47.21455       69.49699
H         63.95341       47.14437       70.87275
N         70.14081       50.29915       67.82677
C         70.84366       51.35355       68.56586
C         72.21598       51.71249       67.95102
O         72.88316       52.58160       68.49535
C         70.95252       50.92882       70.05257
C         71.57835       49.57179       70.18724
O         72.76615       49.38593       69.61302
O         70.99151       48.64577       70.72070
H         70.57181       49.36460       67.78794
H         70.26458       52.30272       68.54833
H         69.93641       50.89916       70.50053
H         71.55303       51.68054       70.60963
N         72.67389       51.14322       66.79667
C         73.90458       51.52931       66.10322
C         75.22644       51.12779       66.74927
O         76.24415       51.35542       66.11007
H         72.07390       50.46541       66.31515
H         73.89833       52.62441       65.91128
H         73.90235       51.03314       65.11098
N         75.31853       50.55109       67.98209
C         76.58531       50.17377       68.61156
C         76.56032       48.70117       69.09537
O         76.07575       47.83814       68.11287
C         76.82745       51.10222       69.81682
C         76.97943       52.53863       69.38368
N         78.01530       52.91331       68.59652
O         76.16632       53.37244       69.75335
H         74.46793       50.42293       68.52575
H         77.42724       50.27917       67.89343
H         77.74951       50.81068       70.36255
H         75.96669       51.00759       70.51754
H         78.71879       52.22626       68.28837
H         78.12241       53.89494       68.30196
N         77.88382       48.27485       69.56583
C         77.91888       46.95495       70.22089
C         77.70042       45.80708       69.25529
O         78.31882       45.79872       68.19972
H         78.57900       48.31276       68.78423
H         77.20882       46.91572       71.07621
H         78.93997       46.83454       70.64057
N         76.87440       44.76591       69.57420
C         76.64357       43.64897       68.66058
C         75.74224       44.07302       67.49895
O         75.35885       45.23188       67.42349
C         76.03282       42.42315       69.39435
C         76.87230       41.84079       70.51223
C         78.23335       41.52703       70.32660
C         76.26807       41.53520       71.74388
C         78.97068       40.93188       71.35598
C         77.00251       40.92181       72.76320
C         78.35749       40.61882       72.57267
O         79.07463       40.01824       73.54407
H         76.43907       44.74587       70.50887
H         77.61625       43.31367       68.24136
H         75.93435       41.59175       68.67050
H         75.01231       42.66368       69.75873
H         78.73205       41.73429       69.38992
H         75.21775       41.74120       71.90680
H         80.01741       40.69936       71.20212
H         76.51365       40.67256       73.69649
H         78.68142       39.76215       74.39076
N         75.35572       43.16118       66.56106
C         74.50761       43.40516       65.39669
C         73.12837       43.94402       65.77603
O         73.04237       45.09320       66.17163
C         75.19652       44.34769       64.35380
C         74.36281       44.36422       63.04028
C         76.64844       43.90330       64.08852
C         74.91628       45.27493       61.94317
H         75.69656       42.19346       66.65249
H         74.37536       42.41638       64.90243
H         75.24577       45.38027       64.76655
H         73.33327       44.71752       63.26382
H         74.29145       43.33189       62.63255
H         76.67876       42.87894       63.66341
H         77.16017       44.60476       63.39920
H         77.24103       43.92311       65.02711
H         74.98798       46.32147       62.30501
H         75.91009       44.93000       61.59297
H         74.23303       45.24513       61.06772
N         71.99672       43.19279       65.60884
C         70.65295       43.77779       65.69026
C         69.80787       43.29740       66.86134
O         68.72096       43.84265       67.02359
C         69.92198       43.50515       64.36495
O         69.74967       42.12306       64.19238
H         72.08828       42.20526       65.33123
H         70.73060       44.87975       65.81178
H         70.53107       43.91560       63.52791
H         68.92797       44.00542       64.37103
H         69.33605       42.00003       63.29931
N         70.18670       42.30141       67.70712
C         69.34208       41.87450       68.82299
C         69.50956       42.82648       69.99656
O         70.62965       42.92715       70.47846
C         69.74023       40.46467       69.27168
H         71.07113       41.80023       67.52635
H         68.28826       41.80450       68.47925
H         69.08511       40.12958       70.10397
H         69.62693       39.75590       68.42442
H         70.79829       40.43937       69.61320
N         68.50868       43.57192       70.54892
C         67.11866       43.63814       70.10786
C         66.35958       42.33500       70.36948
O         66.45377       41.85167       71.48891
C         66.39319       44.74238       70.89480
H         68.78137       44.18361       71.33629
H         67.10850       43.98214       69.06468
H         66.36974       44.51297       71.98220
H         66.91418       45.71174       70.75517
H         65.34869       44.85460       70.53413
N         65.47920       41.75539       69.48913
C         65.16018       42.24035       68.14787
C         65.10834       41.11578       67.10728
O         64.97827       41.42975       65.93369
C         63.81776       43.00668       68.21924
C         63.54124       43.88942       66.99004
C         62.24725       44.63432       67.14317
O         62.24068       45.98069       67.16562
O         61.19347       44.02418       67.23057
H         64.90509       40.98567       69.86661
H         65.93453       42.93877       67.80399
H         63.85693       43.69478       69.09157
H         62.98769       42.28619       68.39422
H         63.47784       43.29207       66.06126
H         64.37194       44.62282       66.88654
N         65.18146       39.79091       67.44277
C         65.07873       38.71910       66.47058
H         65.98648       38.08396       66.52385
H         64.19016       38.09538       66.70761
H         64.96903       39.09082       65.43042
H         65.28660       39.49458       68.41993
Ca        74.01542       47.64241       69.00703
O         73.86373       46.58029       71.81795
H         74.46931       45.96399       71.33481
H         74.36596       47.43238       71.86576
O         70.51483       46.33285       68.77096
H         69.88423       46.80461       69.36875
H         69.92751       45.85598       68.13559
O         73.03626       44.42545       69.14818
H         72.64269       44.54650       70.04767
H         72.82488       43.48953       68.90295

Ca 1.0



