%chk=apoCaM-CA-Ng.loop4.water7.frame894.chk
%nprocshared=20
%mem=10GB
%nosave
#b3lyp/svp scf=(tight,noincore,xqc) Test 
#IOP(5/87=12) Density=Current Pop=(MK,readradii) iop(6/33=2) iop(6/42=6)

apoCaM-CA-Ng.loop4.water7.frame894 

   -3  1 
C         12.05190        8.28139        6.65181
C         12.19994        8.25127        5.15792
O         11.93866        7.21796        4.56173
H         10.99971        8.05287        6.92315
H         12.71851        7.53102        7.11529
H         12.31351        9.27657        7.06765
N         12.60222        9.36869        4.48771
C         12.72993        9.48971        3.03929
C         11.37113        9.30426        2.37774
O         10.85619        8.19632        2.33295
C         13.84885        8.57623        2.49991
C         14.13727        8.78751        1.04364
O         14.45247       10.01280        0.58249
O         14.15020        7.83648        0.28209
H         12.81584       10.21326        5.04017
H         13.06287       10.53450        2.84730
H         13.61946        7.50466        2.68652
H         14.77800        8.83517        3.04393
N         10.69695       10.39863        1.92209
C          9.33120       10.37231        1.40791
C          9.31548       11.01282        0.02131
O          9.79867       12.13099       -0.09292
C          8.39831       11.16836        2.38041
C          8.43868       10.54750        3.80574
C          6.95251       11.20526        1.84003
C          7.57622       11.28478        4.83566
H         11.14560       11.32332        2.01357
H          8.94582        9.33394        1.37272
H          8.76491       12.21758        2.44640
H          9.48312       10.57432        4.18360
H          8.11204        9.48533        3.76739
H          6.30279       11.84146        2.47277
H          6.91608       11.65420        0.82638
H          6.52417       10.18190        1.79776
H          7.70965       10.81564        5.83330
H          7.87487       12.35217        4.90131
H          6.49780       11.21614        4.58634
N          8.72798       10.44558       -1.07748
C          8.02602        9.16381       -1.08137
C          8.96247        7.96902       -0.99640
O          8.47177        6.86075       -0.82606
C          7.10649        9.02609       -2.31618
C          7.84688        8.89772       -3.62483
O          8.64619        9.88584       -4.06859
O          7.70760        7.89304       -4.30372
H          8.70390       11.02278       -1.93021
H          7.34422        9.15699       -0.20520
H          6.42444        9.90254       -2.36314
H          6.47328        8.12114       -2.17768
N         10.31402        8.10336       -1.11563
C         11.22098        6.98089       -0.98751
C         11.10823        5.96130       -2.09120
O         10.37493        6.15045       -3.05198
H         10.73336        9.03207       -1.26264
H         11.04905        6.49407       -0.00346
H         12.25833        7.35047       -1.02807
N         11.84081        4.82071       -1.97916
C         11.85097        3.74822       -2.96263
C         11.13156        2.51688       -2.44659
O         11.03451        1.55766       -3.19970
C         13.30638        3.41364       -3.39736
C         14.23671        2.99060       -2.28148
O         14.54190        3.76852       -1.39200
O         14.79635        1.76713       -2.29867
H         12.38495        4.69460       -1.11425
H         11.29609        4.05790       -3.87502
H         13.75518        4.29800       -3.89572
H         13.26818        2.59257       -4.14761
N         10.57810        2.45438       -1.19665
C          9.91720        1.25497       -0.71396
C         10.87502        0.08970       -0.55369
O         10.40351       -1.00421       -0.27863
H         10.60642        3.26653       -0.56455
H          9.10925        0.98670       -1.42970
H          9.44585        1.45058        0.27402
N         12.23085        0.24567       -0.67959
C         13.19690       -0.83797       -0.56624
C         13.23450       -1.44997        0.82619
O         13.88945       -2.46967        0.99105
C         13.03578       -1.85171       -1.73050
C         13.37825       -1.15862       -3.06840
C         13.41519       -2.09316       -4.24851
N         12.69623       -1.82875       -5.36532
O         14.14361       -3.07375       -4.21779
H         12.62442        1.17750       -0.85362
H         14.22032       -0.41902       -0.68500
H         12.01923       -2.29913       -1.75688
H         13.76928       -2.67405       -1.58601
H         14.39589       -0.72395       -2.98522
H         12.66646       -0.33192       -3.26002
H         12.10270       -0.98870       -5.42962
H         12.75765       -2.45145       -6.18476
N         12.67045       -0.81514        1.90002
C         12.80577       -1.29106        3.27401
C         13.55913       -0.30356        4.16420
O         13.84903       -0.68873        5.28963
C         11.42030       -1.64130        3.88318
C         10.44734       -0.44844        3.87426
C         10.79621       -2.83837        3.15516
H         12.15955        0.06462        1.75413
H         13.42144       -2.21743        3.29382
H         11.57388       -1.95135        4.94114
H         10.19792       -0.13741        2.83790
H          9.49837       -0.72877        4.37789
H         10.88260        0.41803        4.41492
H         10.61323       -2.60535        2.08544
H         11.47541       -3.71578        3.21922
H          9.83254       -3.11655        3.63226
N         13.91517        0.95986        3.76559
C         14.67797        1.87173        4.62239
C         15.96848        2.28632        3.90297
O         16.12497        1.96560        2.73120
C         13.76631        3.06341        5.01048
C         14.16479        3.85440        6.24107
N         13.42288        4.91716        6.61877
O         15.11081        3.52151        6.93535
H         13.63639        1.30600        2.83661
H         14.95911        1.33807        5.55537
H         12.76058        2.65895        5.26097
H         13.65177        3.73281        4.13059
H         12.59978        5.20354        6.07132
H         13.67100        5.44685        7.46758
N         16.97762        2.92080        4.56353
C         18.28585        3.18888        3.96175
C         19.33893        3.48806        5.01988
O         18.99735        3.61579        6.18949
C         18.23711        4.31580        2.89872
C         17.98997        5.70715        3.45251
C         16.75866        6.05816        4.03266
C         19.00105        6.68408        3.36069
C         16.54210        7.36066        4.49768
C         18.78177        7.98311        3.82651
C         17.55032        8.32969        4.38605
O         17.34417        9.59614        4.79902
H         16.85003        3.09791        5.56065
H         18.61528        2.24685        3.47007
H         17.47765        4.09300        2.12076
H         19.21896        4.31266        2.37881
H         15.95826        5.33582        4.10986
H         19.96181        6.44563        2.92176
H         15.58482        7.62010        4.93260
H         19.56702        8.72480        3.74084
H         16.49010        9.89177        5.14426
N         20.65913        3.58962        4.68234
C         21.68786        3.86008        5.67578
C         22.38659        5.17153        5.35262
O         23.20807        5.18300        4.44632
C         22.69739        2.70301        5.78156
C         22.02245        1.39879        6.23090
C         23.03436        0.30489        6.40891
O         23.20130       -0.26783        7.61652
O         23.70658       -0.07401        5.46305
H         20.94503        3.46831        3.69884
H         21.22825        3.92071        6.66738
H         23.46643        2.97764        6.53836
H         23.20275        2.54822        4.80269
H         21.26790        1.07732        5.48125
H         21.50521        1.57007        7.20071
N         22.09884        6.34819        5.98932
C         21.00851        6.51563        6.95021
C         21.21764        5.74271        8.23959
O         22.33110        5.32147        8.52373
C         20.74517        8.00690        7.23242
C         21.88050        8.70435        8.00332
C         21.60800       10.17628        8.06910
O         22.40650       10.96896        7.59741
O         20.45606       10.62369        8.59995
H         22.61150        7.18667        5.67468
H         20.09506        6.12394        6.44966
H         19.80388        8.11179        7.81444
H         20.59461        8.51313        6.25275
H         22.85660        8.54462        7.49808
H         21.94773        8.29100        9.03243
N         20.14265        5.45111        9.02414
C         20.21872        4.63276       10.21680
H         19.82462        5.20279       11.08239
H         19.59658        3.72316       10.07240
H         21.25578        4.30865       10.44400
H         19.20958        5.78585        8.73910
Ca        19.84567       12.78648        8.38144
O         19.29734       15.60044        7.04522
H         18.99518       15.96125        6.17410
H         19.15633       16.34268        7.68477
O         18.54614       11.59679       10.88564
H         19.32174       10.99383       11.00828
H         18.61617       12.24359       11.63160
O         21.07764       13.41067        5.53057
H         21.70429       12.71728        5.85416
H         21.54204       14.26537        5.71397
O         22.19213       14.26771        9.42472
H         22.56345       13.44019        9.02744
H         21.75231       13.96482       10.25872
O         18.73604       14.86629       10.32759
H         17.99784       15.50201       10.50271
H         19.55337       15.35015       10.60685
O         17.88320       12.97321        5.64041
H         18.15611       12.32531        4.94345
H         17.88378       13.84810        5.17700
O         17.66735       10.44593        7.96609
H         17.80345        9.50136        8.22879
H         16.85017       10.43339        7.40970

Ca 1.0



