%chk=apoCaM-CA-Ng.loop1.water3.frame990.chk
%nprocshared=20
%mem=10GB
%nosave
#b3lyp/svp scf=(tight,noincore,xqc) Test 
#IOP(5/87=12) Density=Current Pop=(MK,readradii) iop(6/33=2) iop(6/42=6)

apoCaM-CA-Ng.loop1.water3.frame990 

   0  1 
C         80.96422       77.41153       33.34310
C         80.61783       76.55724       34.52636
O         80.45084       75.35793       34.35878
H         81.91482       77.05507       32.89456
H         80.15400       77.34431       32.58781
H         81.08913       78.47628       33.63366
N         80.49693       77.11282       35.76281
C         80.17224       76.35643       36.96012
C         78.76217       76.74712       37.51152
O         78.43291       78.11099       37.47932
C         81.39666       76.31066       37.94339
C         82.43677       77.43231       37.96691
O         83.58829       77.17455       37.65081
O         82.16420       78.67313       38.40681
H         80.64863       78.12756       35.87034
H         79.99792       75.28349       36.72092
H         81.98590       75.42560       37.60995
H         81.06449       76.06255       38.97231
N         78.48064       76.12325       38.81139
C         77.19166       76.48805       39.44026
C         77.44581       77.07609       40.81772
O         76.50237       77.57256       41.41441
C         76.23018       75.27718       39.52378
C         75.79455       74.81021       38.12266
C         74.85845       73.58985       38.13362
C         75.55589       72.30634       38.61564
N         74.67310       71.14766       38.47920
H         78.64518       75.08950       38.78706
H         76.68191       77.29104       38.86345
H         75.31312       75.56406       40.08514
H         76.73563       74.46151       40.08220
H         76.67857       74.56842       37.49568
H         75.25227       75.65257       37.63938
H         74.52367       73.42344       37.08646
H         73.95912       73.79819       38.75408
H         75.86030       72.40704       39.67894
H         76.46861       72.13415       38.00266
H         75.17957       70.29162       38.80219
H         73.81422       71.27564       39.06164
H         74.40385       71.01734       37.47656
N         78.69409       77.08980       41.37578
C         79.00411       77.74505       42.64221
C         78.74106       79.25190       42.54332
O         79.03707       79.82335       41.50407
C         80.46242       77.44238       43.08021
C         81.55882       77.84989       42.12778
O         81.31296       78.39540       41.06709
O         82.83902       77.58305       42.44698
H         79.46739       76.62353       40.88318
H         78.37592       77.29011       43.42978
H         80.55174       76.34374       43.22713
H         80.65494       77.93094       44.05840
N         78.22867       80.00013       43.56717
C         77.93704       79.49106       44.89468
C         76.75954       78.55070       44.93888
O         76.05510       78.38484       43.95432
H         78.11727       81.01538       43.41797
H         77.70994       80.33495       45.58144
H         78.84549       78.98129       45.27921
N         76.52380       77.85799       46.08308
C         75.47581       76.85503       46.20650
C         74.08507       77.46053       46.05765
O         73.33151       77.00768       45.20731
C         75.62654       76.04309       47.52228
C         75.46472       76.81864       48.80529
O         76.23268       77.72271       49.09288
O         74.48445       76.48722       49.66678
H         77.17400       78.00660       46.86846
H         75.62240       76.10535       45.39507
H         76.63185       75.56619       47.53406
H         74.87295       75.22603       47.50975
N         73.66879       78.46643       46.87616
C         72.31029       78.98681       46.90645
C         71.85006       79.79881       45.70541
O         70.72831       80.28022       45.77798
H         74.32216       78.83147       47.58325
H         72.22989       79.66173       47.78567
H         71.60518       78.14304       47.07463
N         72.60541       80.00926       44.58482
C         72.13952       80.82450       43.45628
C         73.14442       81.91536       43.15119
O         74.30969       81.61164       42.93314
C         71.90229       79.96941       42.19957
C         70.78643       78.94836       42.44185
O         71.51304       80.81976       41.14873
H         73.53565       79.57481       44.51147
H         71.16327       81.30449       43.69024
H         72.85059       79.44604       41.93485
H         71.69222       80.33850       40.30027
H         70.60512       78.36352       41.51647
H         71.06186       78.24785       43.25676
H         69.84328       79.47046       42.71739
N         72.74434       83.21929       43.11975
C         73.65490       84.34060       42.90379
C         73.89386       85.04306       44.23560
O         74.92786       85.67807       44.39305
C         73.10517       85.29450       41.80380
C         72.65605       84.54024       40.52281
C         74.10328       86.41503       41.45879
C         73.75700       83.75660       39.80561
H         71.75039       83.42970       43.29596
H         74.64332       83.94329       42.58378
H         72.18716       85.77916       42.20622
H         72.22079       85.27279       39.80836
H         71.84407       83.82846       40.78584
H         74.32705       87.03724       42.34841
H         75.05782       85.99851       41.07548
H         73.67019       87.08809       40.68839
H         73.32053       83.25251       38.91742
H         74.56483       84.42996       39.45601
H         74.18342       82.97513       40.46614
N         73.03280       84.85807       45.27896
C         73.29927       85.24670       46.64983
C         72.19632       86.15014       47.18206
O         71.27020       86.48215       46.45303
C         73.48852       83.94998       47.48578
C         72.24320       83.04544       47.50479
O         74.57339       83.23564       46.94695
H         72.15471       84.35110       45.13270
H         74.25178       85.81822       46.71813
H         73.73453       84.23680       48.53086
H         74.79786       82.51033       47.58585
H         72.43719       82.15916       48.14298
H         71.36697       83.58836       47.91426
H         71.99914       82.66702       46.49142
N         72.26759       86.61265       48.45882
C         71.33316       87.56436       49.04865
C         72.11543       88.82569       49.36429
O         71.78512       89.88064       48.84264
C         70.63241       86.94140       50.28160
C         69.61293       87.90462       50.90066
O         71.57226       86.56017       51.25302
H         73.06242       86.30188       49.03491
H         70.53098       87.82808       48.32197
H         70.08700       86.03806       49.91837
H         71.15015       85.85026       51.80393
H         68.84766       88.19060       50.14797
H         69.09831       87.41192       51.75263
H         70.11357       88.82245       51.27590
N         73.23074       88.75772       50.14498
C         74.16223       89.86706       50.29655
C         75.58159       89.36298       50.53159
O         75.79647       88.17886       50.75000
C         73.69565       90.84897       51.38856
C         73.44860       90.14837       52.73438
C         73.08790       91.15803       53.82893
C         72.71311       90.43911       55.13197
N         72.43029       91.39900       56.19814
H         73.49923       87.84190       50.52390
H         74.22521       90.40103       49.32182
H         72.74570       91.32888       51.06702
H         74.45662       91.65070       51.50614
H         74.35631       89.59010       53.05118
H         72.61158       89.42637       52.60817
H         72.22438       91.77822       53.50314
H         73.96148       91.82434       54.00359
H         73.54533       89.77381       55.45224
H         71.81105       89.81125       54.95330
H         73.29136       91.95113       56.41685
H         71.65955       92.04504       55.91105
H         72.13535       90.87954       57.05634
N         76.62284       90.23175       50.41101
C         78.01698       89.81787       50.49535
C         78.33362       88.71473       49.47974
O         78.82400       87.68258       49.91593
C         78.94482       91.04656       50.36137
C         80.43248       90.67932       50.45690
C         81.28945       91.91158       50.42054
O         82.09876       92.19960       51.45754
O         81.26185       92.65458       49.45203
H         76.41244       91.22014       50.20453
H         78.20027       89.40540       51.51422
H         78.69688       91.74830       51.18878
H         78.76466       91.58307       49.41191
H         80.71842       90.02220       49.60735
H         80.61901       90.13299       51.40659
N         78.08409       88.78915       48.13805
C         77.43772       89.89394       47.46305
H         76.41546       90.04883       47.86186
H         78.03501       90.81787       47.54432
H         77.33789       89.65898       46.38185
H         78.34171       87.97751       47.55439
Ca        80.04674       79.18577       38.54132
O         81.94631       81.54451       41.00114
H         82.58204       82.28920       40.85456
H         82.52096       80.77280       41.23261
O         77.24420       80.63609       39.09433
H         76.63977       80.16949       38.46435
H         76.81300       80.52696       39.97882
O         79.44790       82.88201       39.54728
H         78.70937       83.51949       39.71650
H         80.27031       83.42594       39.63790

Ca 1.0



