%chk=apoCaM-CA-Ng.loop1.water3.frame1186.chk
%nprocshared=20
%mem=10GB
%nosave
#b3lyp/svp scf=(tight,noincore,xqc) Test 
#IOP(5/87=12) Density=Current Pop=(MK,readradii) iop(6/33=2) iop(6/42=6)

apoCaM-CA-Ng.loop1.water3.frame1186 

   0  1 
C         12.15808        1.05685       80.05724
C         13.04684        0.45192       81.09879
O         12.78910        0.64401       82.27914
H         11.33789        1.63770       80.53216
H         12.75135        1.73897       79.41316
H         11.71468        0.25153       79.43649
N         14.13165       -0.28712       80.72658
C         15.04994       -0.88277       81.69036
C         16.40570       -0.21924       81.60502
O         17.42640       -0.88653       81.48772
C         15.07416       -2.42295       81.56697
C         15.56089       -2.97528       80.24916
O         15.93640       -2.24529       79.34556
O         15.58812       -4.30918       80.07084
H         14.32133       -0.40375       79.72079
H         14.70279       -0.66561       82.71524
H         14.04144       -2.79614       81.73744
H         15.72028       -2.83427       82.37341
N         16.47374        1.13403       81.71490
C         17.72439        1.87149       81.80596
C         18.47168        1.44097       83.06423
O         19.61491        1.03398       82.92509
C         17.51326        3.41129       81.76269
C         16.69084        3.90242       80.54949
C         17.33139        3.59363       79.18532
C         16.40132        3.92742       78.00473
N         16.02069        5.33920       77.95594
H         15.58427        1.65025       81.77473
H         18.35329        1.62138       80.92446
H         18.50758        3.91027       81.75497
H         16.98689        3.76471       82.66916
H         16.57006        5.00196       80.64859
H         15.67674        3.45719       80.58313
H         17.54089        2.50877       79.09923
H         18.29220        4.14538       79.09309
H         15.48350        3.30054       78.07019
H         16.92797        3.65945       77.06200
H         16.87251        5.94366       77.91844
H         15.44841        5.50182       77.09601
H         15.43322        5.59112       78.78237
N         17.92125        1.41924       84.32232
C         16.55553        1.80804       84.68568
C         15.71402        0.59080       85.07918
O         16.23523       -0.51603       85.12126
C         16.58948        2.95422       85.71989
C         17.26308        2.64839       87.02899
O         17.67756        1.53392       87.29864
O         17.42266        3.64181       87.91842
H         18.52309        1.05370       85.07580
H         16.02805        2.22951       83.82335
H         15.55907        3.31021       85.93145
H         17.14614        3.79843       85.25495
N         14.36565        0.71136       85.25254
C         13.45524       -0.42536       85.40540
C         13.62777       -1.17283       86.72758
O         13.30601       -0.26518       87.69892
H         13.94362        1.65068       85.17423
H         13.57681       -1.12669       84.56013
H         12.41015       -0.04127       85.37716
N         12.66273       -2.27142       86.83977
C         12.63337       -2.92794       88.17592
C         11.24142       -3.50742       88.41710
O         10.46598       -3.55196       87.47201
C         13.72395       -4.02312       88.25696
C         15.10451       -3.43700       88.28020
O         15.47667       -2.64191       89.30159
O         15.90226       -3.69835       87.39490
H         12.77750       -2.96292       86.06393
H         12.78046       -2.17668       88.97781
H         13.60439       -4.71603       87.39585
H         13.63476       -4.63250       89.16781
N         10.79330       -3.95165       89.63574
C         11.50886       -3.88551       90.90560
C         11.70594       -2.46745       91.38988
O         10.94626       -1.59079       91.00046
H          9.84194       -4.35024       89.67236
H         12.45916       -4.44195       90.87707
H         10.90364       -4.39637       91.68653
N         12.68108       -2.17949       92.30206
C         12.88133       -0.83143       92.84264
C         13.28670        0.14279       91.72980
O         13.67006       -0.31559       90.67171
C         13.86711       -0.89013       94.04171
C         14.06021        0.44796       94.75908
O         15.11221       -1.39305       93.62821
H         13.27795       -2.95313       92.63605
H         11.89807       -0.50057       93.24445
H         13.40539       -1.59425       94.77706
H         15.48852       -1.90398       94.39344
H         13.08009        0.84809       95.09412
H         14.70088        0.29942       95.65438
H         14.55918        1.18869       94.10286
N         13.09462        1.49070       91.86937
C         13.23440        2.51410       90.81766
C         14.69915        2.97220       90.51176
O         15.60039        2.23148       89.72591
C         12.34620        2.23126       89.57461
C         10.86066        2.06312       89.99518
C         12.51267        3.32914       88.50451
C          9.92561        1.67707       88.84575
H         12.69588        1.81644       92.76227
H         12.79946        3.44464       91.24752
H         12.67422        1.29711       89.13786
H         10.48980        3.00205       90.46019
H         10.78654        1.25194       90.75037
H         11.93755        3.08845       87.58813
H         12.18326        4.31361       88.89711
H         13.57163        3.40447       88.18025
H          9.86543        2.47911       88.08302
H         10.26596        0.73356       88.36843
H          8.90001        1.52371       89.24336
N         15.37693        3.47883       91.69738
C         16.67770        4.11355       91.38230
C         17.51326        4.23580       92.62725
O         18.69892        4.51687       92.51130
C         16.53831        5.49014       90.67221
C         15.94170        6.57844       91.57365
O         15.74234        5.36531       89.51975
H         14.74658        4.15012       92.18721
H         17.26365        3.43037       90.72907
H         17.56846        5.82411       90.39681
H         16.25233        5.73285       88.75285
H         16.57089        6.72408       92.47739
H         15.90933        7.53982       91.02178
H         14.90985        6.32796       91.89077
N         16.96198        4.05876       93.86107
C         17.74440        4.11757       95.07554
C         18.67598        2.92931       95.05106
O         18.19897        1.80645       95.13203
C         16.80986        4.14181       96.31235
C         15.98373        5.44914       96.30537
O         15.96519        3.01271       96.28975
H         15.95587        3.87389       93.95164
H         18.33053        5.06371       95.07635
H         17.42773        4.12003       97.23537
H         15.21038        3.16981       96.91451
H         16.66064        6.32931       96.33017
H         15.34444        5.52761       95.39972
H         15.32217        5.49722       97.19462
N         20.01053        3.11418       94.82416
C         20.97722        2.04299       94.60151
C         20.63026        1.27235       93.33346
O         19.57799        0.65769       93.26731
C         21.10553        1.12833       95.83495
C         21.54266        1.94064       97.06360
C         21.63006        1.06637       98.31510
C         22.07560        1.90036       99.52362
N         22.12415        1.08224      100.73359
H         20.36596        4.07950       94.75202
H         21.97296        2.51518       94.44501
H         21.86671        0.34346       95.63009
H         20.14229        0.61942       96.04585
H         20.80662        2.75162       97.25669
H         22.53444        2.40230       96.85993
H         22.35636        0.24172       98.14644
H         20.62857        0.62834       98.52066
H         21.36292        2.74096       99.68115
H         23.08395        2.32901       99.32701
H         22.43613        1.67650      101.53524
H         21.17326        0.70107      100.94500
H         22.80151        0.29534      100.60890
N         21.48814        1.25586       92.27504
C         21.17898        0.57531       91.02091
C         20.10988        1.33098       90.23199
O         19.06268        0.74107       90.01049
C         22.46187        0.30744       90.20965
C         23.33687       -0.73685       90.92095
C         24.62955       -0.94485       90.19181
O         25.49935        0.07520       90.06154
O         24.90938       -2.04051       89.73306
H         22.40076        1.72650       92.37158
H         20.76569       -0.43488       91.25032
H         23.04457        1.23648       90.08137
H         22.19470       -0.09363       89.20663
H         22.77512       -1.69691       90.97641
H         23.57251       -0.41109       91.95595
N         20.23155        2.61116       89.76896
C         21.39020        3.46209       89.91774
H         22.24854        3.05524       89.35397
H         21.17535        4.45842       89.47424
H         21.63618        3.60652       90.98802
H         19.42784        3.01955       89.27146
Ca        15.16684        0.34652       88.67611
O         18.27111       -1.65019       87.63480
H         19.10909       -2.03815       87.27901
H         17.95133       -1.05879       86.91029
O         16.73074        0.49677       91.64807
H         17.44127        0.09128       92.20000
H         15.96420        0.57602       92.26423
O         18.13896       -2.37877       90.74553
H         18.77507       -2.52605       91.48956
H         17.98634       -3.28093       90.36675

Ca 1.0



