%chk=apoCaM-CA-Ng.loop3.water2.frame525.chk
%nprocshared=20
%mem=10GB
%nosave
#b3lyp/svp scf=(tight,noincore,xqc) Test 
#IOP(5/87=12) Density=Current Pop=(MK,readradii) iop(6/33=2) iop(6/42=6)

apoCaM-CA-Ng.loop3.water2.frame525 

   0  1 
C         83.82590       -6.20851       80.92110
C         83.91026       -7.11877       82.10783
O         83.10442       -8.03078       82.22544
H         84.76875       -6.28257       80.33678
H         82.97950       -6.49554       80.26224
H         83.68887       -5.16149       81.26016
N         84.90620       -6.94608       83.01789
C         85.12463       -7.86061       84.13027
C         83.98051       -7.78951       85.12835
O         83.83051       -6.76680       85.78288
C         86.47035       -7.51916       84.80022
C         87.03888       -8.60816       85.64493
O         88.14151       -8.44373       86.14287
O         86.47212       -9.82616       85.70360
H         85.57742       -6.17798       82.85664
H         85.20183       -8.88031       83.70172
H         86.39455       -6.57040       85.37276
H         87.23081       -7.37240       84.00154
N         83.10358       -8.82577       85.26686
C         81.98191       -8.78233       86.20814
C         82.40209       -9.00254       87.65308
O         81.55950       -8.81528       88.52135
C         80.88915       -9.81774       85.83217
C         79.70506       -9.15789       85.11800
C         78.59899      -10.17658       84.81829
C         77.33755       -9.46902       84.30737
N         76.27456      -10.43169       84.02614
H         83.21287       -9.64114       84.64429
H         81.53312       -7.76371       86.17922
H         80.45618      -10.27142       86.75161
H         81.32140      -10.64655       85.23485
H         80.03390       -8.65977       84.18092
H         79.29165       -8.38764       85.80855
H         78.33301      -10.72389       85.75004
H         78.96595      -10.91028       84.06732
H         77.57331       -8.89576       83.38427
H         76.98068       -8.75396       85.08371
H         76.03337      -10.96760       84.89163
H         75.42498       -9.91696       83.69986
H         76.58236      -11.09159       83.27711
N         83.64861       -9.42337       87.99736
C         84.05736       -9.66389       89.37601
C         85.18223       -8.71412       89.74849
O         85.01250       -7.96443       90.70041
C         84.32512      -11.17126       89.60719
C         85.17675      -11.88016       88.58330
O         86.47666      -11.59299       88.43230
O         84.68804      -12.77002       87.90584
H         84.33799       -9.60606       87.25605
H         83.23113       -9.42841       90.08641
H         83.32768      -11.66594       89.57609
H         84.73558      -11.33084       90.62746
N         86.32218       -8.63084       89.01086
C         87.36804       -7.65171       89.25694
C         88.72575       -8.27234       89.50411
O         89.66954       -7.50373       89.63188
H         86.43339       -9.23796       88.19482
H         87.12560       -6.99477       90.12014
H         87.43775       -7.00202       88.35836
N         88.91795       -9.62408       89.60975
C         90.22576      -10.22509       89.87137
C         90.60600      -11.25640       88.81724
O         89.77045      -11.63231       88.01104
C         90.25019      -10.88009       91.27883
C         89.75058      -12.31820       91.33190
N         88.48565      -12.66839       91.00292
O         90.53564      -13.19318       91.66811
H         88.10734      -10.24065       89.53583
H         90.98971       -9.41754       89.86992
H         89.71071      -10.23663       92.00792
H         91.31315      -10.90978       91.60432
H         87.78493      -11.97527       90.72354
H         88.20347      -13.66024       91.02558
N         91.84886      -11.81023       88.82144
C         92.24861      -12.94106       87.99315
C         92.06044      -12.70647       86.51298
O         92.56163      -11.71118       86.00822
H         92.54479      -11.44340       89.48954
H         91.67724      -13.84002       88.30677
H         93.32496      -13.14249       88.18180
N         91.38932      -13.62238       85.74089
C         91.19907      -13.45267       84.30050
C         90.06716      -12.43470       83.99403
O         90.17854      -11.33849       84.83364
C         90.84692      -14.78501       83.59629
C         91.96557      -15.79602       83.54961
C         93.18624      -15.47649       82.92808
C         91.77754      -17.09045       84.06211
C         94.19754      -16.43429       82.81946
C         92.78853      -18.05000       83.94452
C         94.00113      -17.72506       83.31879
O         94.97729      -18.64483       83.18145
H         91.06415      -14.49563       86.18250
H         92.15195      -13.07317       83.87183
H         90.60006      -14.57869       82.53294
H         89.94338      -15.22283       84.06675
H         93.35329      -14.49190       82.51073
H         90.84139      -17.36638       84.53122
H         95.12919      -16.17623       82.33150
H         92.62344      -19.04869       84.32851
H         94.87264      -19.55648       83.48883
N         90.07760      -12.07081       82.55348
C         89.44416      -10.83121       82.04008
C         87.92224      -10.82764       82.15048
O         87.40245      -10.78591       83.25213
C         90.03518       -9.50121       82.63589
C         89.50426       -8.23075       81.91097
C         91.57658       -9.49334       82.66742
C         89.92304       -8.08914       80.44285
H         91.05539      -12.09880       82.18070
H         89.69545      -10.82482       80.95914
H         89.69019       -9.39152       83.68372
H         89.87445       -7.33425       82.45528
H         88.39519       -8.20564       81.96240
H         91.94377       -8.53811       83.10001
H         91.96961      -10.30542       83.31153
H         92.00465       -9.62440       81.65342
H         89.53517       -8.92235       79.82462
H         89.50657       -7.14450       80.03540
H         91.02667       -8.03813       80.34481
N         87.14949      -10.73324       81.02650
C         85.73111      -10.36841       81.07263
C         84.81152      -11.37607       81.75670
O         83.69802      -10.99624       82.09324
C         85.19613      -10.05085       79.66514
O         85.92114       -8.99395       79.08967
H         87.61784      -10.77252       80.10902
H         85.67596       -9.42388       81.64538
H         84.13255       -9.73463       79.72245
H         85.22878      -10.95954       79.01910
H         86.62120       -9.39358       78.51065
N         85.16012      -12.67719       81.94445
C         84.26321      -13.65025       82.57121
C         84.15019      -13.39800       84.07066
O         85.18928      -13.23946       84.69245
C         84.80245      -15.06731       82.34390
H         86.07012      -12.99935       81.58145
H         83.27757      -13.61885       82.06918
H         85.80641      -15.19550       82.79057
H         84.11904      -15.81846       82.79118
H         84.87077      -15.27096       81.25402
N         82.97806      -13.39432       84.77675
C         81.63552      -13.60713       84.24598
C         81.50666      -14.96824       83.56632
O         81.81161      -15.95516       84.22240
C         80.60797      -13.58544       85.39427
H         83.05950      -13.24290       85.79511
H         81.38886      -12.75214       83.60034
H         80.64531      -12.63432       85.95432
H         79.57881      -13.70826       84.99314
H         80.80579      -14.40481       86.11923
N         81.00666      -15.16037       82.30605
C         80.53129      -14.11753       81.40298
C         80.98191      -14.41422       79.98490
O         81.69305      -13.60281       79.40819
C         78.99900      -14.00408       81.51439
C         78.45680      -12.78237       80.75174
C         76.96464      -12.62367       80.87386
O         76.28858      -13.42391       81.50234
O         76.36482      -11.57282       80.28365
H         80.87253      -16.13954       82.00864
H         80.94727      -13.13452       81.67287
H         78.73823      -13.87082       82.58780
H         78.51471      -14.93822       81.15633
H         78.71240      -12.86290       79.67454
H         78.93301      -11.86542       81.16429
N         80.59649      -15.56476       79.36048
C         80.97554      -15.90886       78.00545
H         81.54424      -16.86217       78.01415
H         80.05907      -16.04441       77.39351
H         81.60322      -15.12784       77.52815
H         80.00085      -16.23957       79.86234
Ca        88.15366      -11.27140       85.85607
O         87.69073      -14.23863       84.54747
H         87.40180      -15.18375       84.60316
H         87.71784      -14.03897       83.57752
O         88.16074      -14.18983       87.51710
H         89.02597      -14.60845       87.75395
H         87.54285      -14.47020       88.23795

Ca 1.0



