%chk=apoCaM-CA-Ng.loop4.water3.frame48.chk
%nprocshared=20
%mem=10GB
%nosave
#b3lyp/svp scf=(tight,noincore,xqc) Test 
#IOP(5/87=12) Density=Current Pop=(MK,readradii) iop(6/33=2) iop(6/42=6)

apoCaM-CA-Ng.loop4.water3.frame48 

   -3  1 
C         49.45083       51.91216       44.54865
C         48.40112       52.07265       43.49325
O         47.56986       52.95405       43.64226
H         50.01976       52.86218       44.64041
H         48.96641       51.68646       45.52169
H         50.15801       51.09569       44.29799
N         48.39408       51.28110       42.37854
C         47.44409       51.42447       41.27934
C         47.46199       52.84661       40.75224
O         46.47402       53.55044       40.88064
C         46.03854       50.82636       41.57239
C         45.29225       51.32010       42.77693
O         44.21956       51.88568       42.64227
O         45.73518       51.02642       44.01373
H         49.14440       50.58340       42.26574
H         47.79310       50.79477       40.42997
H         46.14065       49.72679       41.69593
H         45.41398       50.99236       40.66597
N         48.60951       53.31017       40.16503
C         48.85734       54.62013       39.55337
C         48.16538       54.78743       38.19618
O         48.86018       54.99564       37.21091
C         48.60487       55.81801       40.51737
C         49.01451       57.17574       39.87482
C         49.34639       55.61774       41.85080
C         50.50110       57.28939       39.50230
H         49.41334       52.66298       40.15687
H         49.94480       54.62908       39.33015
H         47.51815       55.88459       40.74272
H         48.76916       58.00223       40.57836
H         48.41243       57.34412       38.95665
H         48.96701       54.72156       42.37624
H         50.43662       55.48734       41.69780
H         49.18681       56.49038       42.51323
H         51.14873       57.22308       40.40083
H         50.80936       56.52351       38.76580
H         50.68478       58.26020       39.01451
N         46.81552       54.71202       38.06228
C         46.10465       54.82013       36.79449
C         45.78952       56.27165       36.41527
O         46.19564       56.65334       35.32710
C         44.82640       53.95304       36.80853
C         45.14407       52.50585       37.07481
O         45.87357       51.88433       36.31832
O         44.61942       51.88724       38.14960
H         46.27001       54.45406       38.87817
H         46.73651       54.37817       35.98891
H         44.31955       54.02421       35.82162
H         44.12023       54.30459       37.58334
N         45.07053       57.15948       37.17882
C         44.59677       56.93957       38.53373
C         43.08886       56.95048       38.63895
O         42.46617       56.20508       37.89680
H         44.88654       58.09456       36.78237
H         45.08290       57.69045       39.17897
H         44.88638       55.96441       38.91585
N         42.39032       57.67212       39.56924
C         42.95031       58.61375       40.54567
C         44.03642       57.98794       41.42793
O         44.13931       56.76928       41.44633
C         41.80311       59.18119       41.42869
C         41.19129       58.14454       42.34415
O         40.64116       57.15439       41.88994
O         41.24121       58.31588       43.67925
H         41.36671       57.54343       39.55885
H         43.39250       59.43321       39.95015
H         41.01147       59.60947       40.77919
H         42.15974       60.00835       42.05864
N         44.91559       58.71668       42.18337
C         44.99972       60.16526       42.28296
C         45.40970       60.84445       40.99915
O         45.71864       60.18485       40.01549
H         45.59471       58.19579       42.74670
H         45.77030       60.42849       43.04155
H         44.05406       60.58171       42.65647
N         45.47898       62.20440       40.97195
C         45.92978       62.96485       39.81510
C         47.41013       63.29790       39.92304
O         47.92571       63.92090       39.00735
C         45.11616       64.26983       39.68256
C         43.61765       64.02371       39.44732
C         42.83540       65.31069       39.30022
N         41.50507       65.26588       39.06124
O         43.39197       66.39618       39.39243
H         45.27604       62.71978       41.84370
H         45.80252       62.36724       38.88401
H         45.50585       64.85157       38.81773
H         45.25396       64.87878       40.60470
H         43.19240       63.44942       40.29792
H         43.49381       63.42946       38.51642
H         41.01669       64.36273       38.97631
H         40.96250       66.13647       38.95704
N         48.16558       62.88987       40.98766
C         49.59608       63.15959       41.10257
C         49.93783       63.95944       42.35023
O         51.11142       64.27219       42.51586
C         50.40132       61.83682       41.03768
C         50.23308       61.18731       39.66098
C         50.02859       60.83617       42.14789
H         47.73008       62.34417       41.74134
H         49.94099       63.78813       40.25238
H         51.48012       62.08750       41.14504
H         49.18377       60.86149       39.49079
H         50.52271       61.89849       38.85806
H         50.90926       60.31871       39.59069
H         48.97454       60.49922       42.05631
H         50.67372       59.93460       42.07939
H         50.17464       61.29105       43.14971
N         48.99205       64.36678       43.24547
C         49.29601       65.21215       44.39145
C         48.95151       64.55067       45.71995
O         49.79964       64.58227       46.60055
C         48.67817       66.62564       44.22271
C         47.18203       66.76726       44.04355
N         46.64869       68.00231       43.90062
O         46.44523       65.79750       44.01125
H         48.00707       64.11549       43.09120
H         50.38909       65.42551       44.43914
H         49.14570       67.08406       43.32308
H         48.97877       67.23617       45.10272
H         47.24877       68.84000       43.91518
H         45.63267       68.12223       43.77455
N         47.73716       63.97158       45.96478
C         47.33606       63.51239       47.29183
C         46.93942       62.04976       47.34048
O         46.49347       61.48693       46.35123
C         46.13665       64.35980       47.76063
C         46.53633       65.78473       48.03992
C         46.02725       66.85034       47.28031
C         47.41909       66.05475       49.09813
C         46.40419       68.16570       47.57483
C         47.78745       67.36617       49.39524
C         47.28123       68.42804       48.63429
O         47.62638       69.70004       48.91650
H         47.04385       63.90015       45.21162
H         48.16651       63.63435       48.01894
H         45.71242       63.95693       48.70366
H         45.33986       64.30645       46.98368
H         45.34280       66.66650       46.46180
H         47.81292       65.24737       49.70298
H         46.01005       68.98228       46.98317
H         48.46273       67.55327       50.22033
H         48.21978       69.91872       49.64964
N         47.01496       61.40926       48.54789
C         46.53397       60.06580       48.85511
C         47.26652       58.93701       48.14820
O         46.91950       57.79488       48.41820
C         45.00129       59.96581       48.67717
C         44.23254       60.99983       49.52357
C         44.52167       60.87478       50.99588
O         44.27035       59.83780       51.58901
O         45.06274       61.91036       51.66657
H         47.39906       61.93755       49.34682
H         46.73718       59.88339       49.93443
H         44.66431       58.95193       48.98712
H         44.72920       60.09820       47.60939
H         43.14254       60.85999       49.36441
H         44.49491       62.02220       49.18548
N         48.32865       59.14375       47.31553
C         49.11339       58.04503       46.75950
C         50.51009       58.01243       47.36602
O         51.25091       57.09238       47.04687
C         49.20186       58.16652       45.22531
C         47.84571       58.20583       44.50454
C         47.04177       56.93800       44.63125
O         46.74224       56.23190       43.52446
O         46.60044       56.57995       45.71035
H         48.64578       60.10127       47.11259
H         48.65750       57.06570       47.01443
H         49.79767       57.32092       44.81580
H         49.73834       59.11015       44.98182
H         48.05131       58.38016       43.42612
H         47.24027       59.06368       44.86616
N         50.93938       58.95783       48.25647
C         52.24544       58.93324       48.88077
H         52.80422       59.84968       48.59868
H         52.11823       58.91604       49.98372
H         52.84307       58.04659       48.58461
H         50.33174       59.74324       48.52495
Ca        45.23950       54.55540       43.55351
O         44.53950       53.27759       46.15134
H         44.27524       52.49823       45.60128
H         45.50369       53.14044       46.33065
O         43.36296       56.35978       45.09619
H         43.52552       56.79178       44.22054
H         43.79479       56.96235       45.75207
O         42.29838       54.14718       42.71980
H         41.43785       54.10874       43.20707
H         42.29370       55.03114       42.27582

Ca 1.0



