%chk=apoCaM-CA-Ng.loop2.water3.frame637.chk
%nprocshared=20
%mem=10GB
%nosave
#b3lyp/svp scf=(tight,noincore,xqc) Test 
#IOP(5/87=12) Density=Current Pop=(MK,readradii) iop(6/33=2) iop(6/42=6)

apoCaM-CA-Ng.loop2.water3.frame637 

   -2  1 
C        -18.18331       32.01874        8.25691
C        -19.54419       32.33753        8.80692
O        -20.20995       31.42940        9.28320
H        -17.53900       31.60095        9.05884
H        -18.28361       31.26649        7.44563
H        -17.69066       32.92105        7.83804
N        -20.04008       33.60732        8.75328
C        -21.37795       33.94862        9.22751
C        -21.46594       33.75945       10.73092
O        -20.76140       34.44938       11.45542
C        -21.72784       35.39718        8.83207
C        -23.15998       35.74195        9.14189
O        -23.60650       35.74022       10.41254
O        -23.92513       36.03555        8.23731
H        -19.46016       34.34218        8.31872
H        -22.09920       33.28102        8.70548
H        -21.57035       35.50216        7.73560
H        -21.05053       36.11582        9.34378
N        -22.30130       32.81938       11.26057
C        -22.38506       32.51908       12.68828
C        -21.86176       31.09356       12.92248
O        -21.58194       30.42933       11.93288
C        -23.83272       32.73429       13.14114
H        -22.87608       32.25297       10.61753
H        -21.74781       33.22634       13.24424
H        -23.96410       32.60936       14.22755
H        -24.13588       33.77789       12.90892
H        -24.51553       32.03928       12.60875
N        -21.64086       30.51169       14.14323
C        -21.93023       31.06308       15.46427
C        -21.22486       32.36860       15.78083
O        -20.32700       32.78178       15.06294
C        -21.60335       30.01490       16.55437
C        -20.15409       29.57287       16.65802
O        -19.15313       30.04426       15.87334
O        -19.87477       28.73498       17.50052
H        -21.26210       29.55125       14.11730
H        -23.01948       31.23996       15.52048
H        -22.21906       29.11003       16.35590
H        -21.91302       30.40509       17.54747
N        -21.59217       33.06741       16.89339
C        -20.97213       34.31839       17.28794
C        -21.32911       35.46590       16.35875
O        -22.13464       35.27285       15.45842
H        -22.32950       32.68636       17.50545
H        -19.87562       34.15934       17.33926
H        -21.34389       34.58338       18.29524
N        -20.77330       36.70820       16.48240
C        -19.70616       37.04505       17.41943
C        -18.88526       38.19753       16.86441
O        -18.71924       39.21639       17.52147
C        -20.20476       37.28499       18.87265
C        -21.12875       38.46778       19.04246
N        -22.36637       38.47731       18.49741
O        -20.75988       39.42180       19.71195
H        -21.03933       37.41577       15.77778
H        -18.98319       36.20249       17.45175
H        -19.30121       37.44892       19.50209
H        -20.70949       36.39284       19.28396
H        -22.71537       37.67400       17.95736
H        -22.98897       39.28704       18.63807
N        -18.27546       38.04794       15.65291
C        -17.35495       39.02309       15.09423
C        -15.91473       38.56881       15.25454
O        -15.02685       39.32898       14.89725
H        -18.39379       37.15783       15.14428
H        -17.44044       39.99182       15.63286
H        -17.61166       39.21258       14.03035
N        -15.60644       37.38410       15.86425
C        -14.26130       36.99253       16.27189
C        -13.87847       35.63731       15.68379
O        -14.64432       35.07198       14.91610
C        -14.24417       36.94942       17.82593
C        -14.53862       38.33404       18.42159
O        -15.19352       36.01843       18.28450
H        -16.36226       36.74956       16.15731
H        -13.50184       37.73297       15.93761
H        -13.23420       36.65209       18.17839
H        -15.01934       35.87423       19.25073
H        -15.55016       38.69095       18.13400
H        -14.48980       38.28646       19.52964
H        -13.78231       39.06767       18.06949
N        -12.70908       35.03585       16.05492
C        -12.31700       33.69296       15.64580
C        -12.52703       32.76366       16.82229
O        -11.87578       32.92722       17.84558
C        -10.82524       33.66943       15.18199
C        -10.28031       32.21570       15.03904
C        -10.67305       34.45965       13.87155
C         -8.78412       32.14540       14.72942
H        -12.09905       35.51154       16.73453
H        -12.95603       33.33010       14.81015
H        -10.21671       34.16599       15.97139
H        -10.84976       31.65372       14.27119
H        -10.39869       31.68158       16.00576
H        -11.23821       33.96309       13.05434
H        -11.05452       35.49456       13.99099
H         -9.60859       34.53736       13.57251
H         -8.45723       31.08361       14.73954
H         -8.55538       32.56123       13.72902
H         -8.20573       32.69494       15.50374
N        -13.41090       31.73240       16.71266
C        -13.58918       30.70415       17.72138
C        -13.24716       29.31274       17.18703
O        -13.23829       28.39946       18.00191
C        -15.01124       30.77968       18.31230
C        -16.09763       30.64574       17.28372
O        -16.20730       29.62515       16.62379
O        -16.96612       31.65874       17.09873
H        -13.98026       31.66297       15.86431
H        -12.88578       30.88027       18.56458
H        -15.12454       31.76822       18.80937
H        -15.14255       29.99544       19.08849
N        -12.92752       29.04920       15.87422
C        -12.43436       27.73249       15.47206
C        -12.59351       27.47387       13.96107
O        -11.59119       27.33729       13.27244
C        -10.95325       27.62377       15.92165
C        -10.47132       26.19700       15.93955
C         -9.49319       25.74120       15.04116
C        -10.99535       25.30997       16.89617
C         -9.05678       24.41240       15.09611
C        -10.54842       23.98936       16.95552
C         -9.58164       23.53900       16.05423
H        -12.95046       29.79537       15.16644
H        -13.02721       26.95430       15.99730
H        -10.81846       28.00914       16.95506
H        -10.33033       28.27109       15.26380
H         -9.07544       26.40749       14.29680
H        -11.73975       25.64840       17.60708
H         -8.30874       24.05934       14.39870
H        -10.95064       23.31799       17.70325
H         -9.23818       22.51404       16.10141
N        -13.82278       27.34852       13.36619
C        -14.03636       27.07080       11.94325
C        -13.37199       28.07646       11.02555
O        -12.87221       27.70485        9.97338
C        -15.55678       27.19195       11.78476
C        -16.04634       26.70718       13.12703
C        -15.08288       27.41243       14.07663
H        -13.69914       26.03385       11.71801
H        -15.84834       28.26597       11.71697
H        -15.96578       26.66047       10.89817
H        -17.12040       26.88755       13.33838
H        -15.85115       25.61075       13.17574
H        -15.35112       28.48129       14.22714
H        -15.08366       26.86305       15.03981
N        -13.33004       29.38277       11.40020
C        -12.73712       30.46236       10.63026
C        -11.30434       30.10552       10.28002
O        -10.97338       30.08936        9.10211
C        -12.79046       31.81413       11.40363
C        -14.21189       32.39711       11.64361
C        -15.06276       31.75961       12.72302
O        -16.39187       31.97886       12.75034
O        -14.55028       31.17073       13.65538
H        -13.71339       29.59454       12.31644
H        -13.30596       30.59369        9.68185
H        -12.26532       32.55344       10.75808
H        -12.23067       31.75602       12.35979
H        -14.76560       32.39428       10.68136
H        -14.10355       33.46115       11.94688
N        -10.41945       29.74832       11.25258
C         -9.06401       29.31462       10.97646
H         -8.34862       29.96105       11.52396
H         -8.94041       28.26578       11.32168
H         -8.81670       29.35049        9.89400
H        -10.72875       29.74298       12.23568
Ca       -17.79985       31.09710       14.34208
O        -18.87350       32.43827       11.88116
H        -19.24777       32.77335       12.73223
H        -19.29762       31.55481       11.76086
O        -18.49510       29.09144       12.36977
H        -19.35078       28.88954       12.82325
H        -18.43377       28.42152       11.64484
O        -17.80327       34.42328       14.24620
H        -16.89997       34.31679       13.85667
H        -17.65279       34.44717       15.22419

Ca 1.0



