%chk=apoCaM-CA-Ng.loop2.water4.frame1068.chk
%nprocshared=20
%mem=10GB
%nosave
#b3lyp/svp scf=(tight,noincore,xqc) Test 
#IOP(5/87=12) Density=Current Pop=(MK,readradii) iop(6/33=2) iop(6/42=6)

apoCaM-CA-Ng.loop2.water4.frame1068 

   -2  1 
C         13.92087       44.82911       38.28601
C         14.59293       45.77388       39.25279
O         14.55505       46.96525       38.98392
H         12.85806       45.13158       38.17626
H         14.41404       44.90056       37.29433
H         13.91320       43.77010       38.59633
N         15.21661       45.38226       40.40444
C         15.42176       44.00347       40.83258
C         16.82691       43.86225       41.41125
O         17.74610       44.34849       40.76736
C         14.23256       43.55979       41.71667
C         14.00578       44.45020       42.91546
O         12.97202       45.09265       43.00978
O         14.91913       44.53252       43.89856
H         15.59812       46.12235       41.01294
H         15.45402       43.33876       39.94819
H         14.34894       42.50469       42.03976
H         13.31837       43.60352       41.08437
N         17.09025       43.20805       42.58528
C         18.42071       43.07350       43.17660
C         19.00843       44.39814       43.66136
O         20.13559       44.37706       44.13675
C         19.37863       42.33880       42.22162
H         16.32554       42.74513       43.09203
H         18.33100       42.42883       44.07968
H         19.59749       42.92336       41.30664
H         20.34654       42.14049       42.72945
H         18.94076       41.36127       41.92729
N         18.30590       45.57263       43.62918
C         18.84246       46.84347       44.11311
C         18.06702       47.39881       45.33348
O         17.18824       46.47991       45.90814
C         18.84838       47.89796       42.98039
C         17.60795       48.00333       42.09148
O         17.76770       47.99339       40.88116
O         16.34241       48.12698       42.55961
H         17.34207       45.57673       43.27476
H         19.89053       46.71380       44.46138
H         19.70109       47.66415       42.30577
H         19.06550       48.89225       43.42389
N         18.93485       48.03341       46.33965
C         18.15996       48.73112       47.37611
C         17.37299       49.93840       46.89847
O         16.43186       50.29089       47.59652
H         19.62901       48.67911       45.90203
H         18.82256       49.03967       48.21133
H         17.44202       48.00905       47.82651
N         17.67827       50.65074       45.76673
C         16.81538       51.74329       45.31660
C         15.48406       51.17941       44.84456
O         15.32877       49.96887       44.79161
C         17.46456       52.60552       44.20853
C         18.67918       53.35704       44.70007
N         19.84966       53.31070       44.02345
O         18.59102       54.05457       45.70041
H         18.51692       50.42293       45.21702
H         16.61798       52.41783       46.18016
H         16.73787       53.38495       43.89995
H         17.70220       51.99002       43.31381
H         19.93977       52.76350       43.15587
H         20.66192       53.85457       44.35253
N         14.45674       52.00897       44.52055
C         13.12650       51.52933       44.18646
C         12.14562       52.07037       45.19746
O         12.53585       52.26021       46.34165
H         14.59772       53.02926       44.56261
H         13.06056       50.42028       44.19775
H         12.87500       51.87051       43.16509
N         10.84775       52.34962       44.89956
C         10.20564       52.09687       43.61548
C         10.36725       53.30371       42.71278
O         10.11231       54.41459       43.15553
C          8.71857       51.74506       43.85836
C          7.98318       51.39014       42.56111
O          8.61555       50.67284       44.76493
H         10.26145       52.72569       45.66248
H         10.65207       51.19812       43.13522
H          8.21106       52.62213       44.31667
H          9.12654       49.90638       44.39166
H          7.99029       52.24830       41.85747
H          8.46518       50.51701       42.07082
H          6.92809       51.13270       42.79089
N         10.78460       53.14887       41.42281
C         11.08158       54.26969       40.53599
C          9.84717       54.59933       39.70023
O          9.44167       53.74024       38.92969
C         12.29294       53.90731       39.61973
C         13.49011       53.29265       40.39615
C         12.74106       55.11727       38.78160
C         14.00644       54.13916       41.55707
H         10.92165       52.19179       41.06374
H         11.39851       55.13572       41.14861
H         11.97365       53.11669       38.90322
H         14.31980       53.09889       39.68200
H         13.19826       52.30461       40.80973
H         13.57526       54.82611       38.10783
H         11.90821       55.47888       38.14359
H         13.07816       55.95342       39.42716
H         14.30848       55.13634       41.20617
H         13.22952       54.25979       42.33879
H         14.88130       53.63353       42.01708
N          9.15455       55.77898       39.77735
C          9.42311       56.85673       40.72933
C         10.47548       57.84008       40.23629
O         10.81504       57.83568       39.06069
C          8.10825       57.59491       41.09390
C          7.41240       58.30543       39.95357
O          6.24700       58.93714       40.18963
O          7.87752       58.31702       38.82449
H          8.30117       55.84322       39.20041
H          9.76471       56.41036       41.68111
H          8.31370       58.34487       41.88720
H          7.39838       56.84734       41.51057
N         11.03084       58.72736       41.11297
C         11.96107       59.78543       40.72208
C         12.58755       60.42556       41.96741
O         11.81471       60.88048       42.80294
C         11.19863       60.89522       39.95318
C         12.13812       62.00214       39.52523
C         12.11603       63.24883       40.17656
C         13.06487       61.78632       38.49124
C         13.01762       64.25300       39.80965
C         13.95833       62.79680       38.12135
C         13.93806       64.02718       38.78321
H         10.77367       58.63904       42.10880
H         12.73241       59.37360       40.05015
H         10.41692       61.30256       40.63303
H         10.67176       60.50076       39.05863
H         11.41920       63.43663       40.98382
H         13.09787       60.83425       37.97662
H         13.00783       65.20428       40.32625
H         14.67145       62.62358       37.32594
H         14.63692       64.80474       38.50249
N         13.94199       60.60437       42.14804
C         14.99523       60.26476       41.18927
C         15.30919       58.76877       41.08580
O         14.38420       57.98904       40.91878
C         16.19454       61.11556       41.66049
C         15.51612       62.28013       42.35289
C         14.45126       61.53060       43.13992
H         14.67222       60.64782       40.20383
H         16.73655       60.59417       42.48110
H         16.92155       61.37598       40.86185
H         16.19349       62.90275       42.97495
H         15.02408       62.92188       41.58720
H         14.92532       60.95341       43.96576
H         13.69230       62.22454       43.56233
N         16.59253       58.28612       41.14355
C         16.92614       56.87413       41.00268
C         17.97886       56.66468       39.91149
O         19.03336       56.12201       40.20582
C         17.31386       56.27447       42.38697
C         18.55986       56.84199       43.10738
C         18.42444       58.27818       43.52072
O         19.22859       59.10835       43.12671
O         17.42767       58.65487       44.34419
H         17.38236       58.92884       41.26573
H         16.04031       56.30238       40.67718
H         17.48146       55.18486       42.24247
H         16.44108       56.37852       43.06952
H         19.46774       56.71171       42.48609
H         18.71460       56.25379       44.03541
N         17.80068       57.03743       38.60900
C         16.61205       57.64614       38.04865
H         15.79055       57.74924       38.77004
H         16.86836       58.64952       37.64806
H         16.23539       57.01433       37.21816
H         18.57570       56.86868       37.94890
Ca        15.65172       47.20811       44.48647
O         11.76975       47.99069       44.67440
H         11.31161       47.82230       45.53582
H         11.06177       47.88206       43.99085
O         13.33704       48.66570       41.94764
H         13.49815       49.57868       41.60005
H         13.83080       48.07402       41.32705
O         13.81100       48.53054       47.13167
H         13.02223       48.53177       47.72930
H         13.96868       49.48740       46.93788
O         13.36024       45.65093       46.29325
H         13.00811       44.76315       46.03257
H         13.98334       45.46263       47.03930

Ca 1.0



