%chk=apoCaM-CA-Ng.loop3.water2.frame993.chk
%nprocshared=20
%mem=10GB
%nosave
#b3lyp/svp scf=(tight,noincore,xqc) Test 
#IOP(5/87=12) Density=Current Pop=(MK,readradii) iop(6/33=2) iop(6/42=6)

apoCaM-CA-Ng.loop3.water2.frame993 

   0  1 
C         61.16538      121.14850       57.35662
C         60.91843      122.62877       57.42394
O         59.95222      123.08931       56.83509
H         62.05997      120.85616       57.94586
H         60.28688      120.61437       57.77950
H         61.30825      120.83166       56.30370
N         61.73228      123.43587       58.16122
C         61.42433      124.83886       58.42203
C         61.99141      125.71487       57.31967
O         63.20147      125.72638       57.13828
C         61.95152      125.19625       59.82847
C         61.37452      126.44120       60.43781
O         61.59773      126.67606       61.61412
O         60.54669      127.25385       59.75675
H         62.50945      122.99545       58.67878
H         60.31941      124.94541       58.47053
H         63.06267      125.21966       59.84648
H         61.61951      124.37785       60.50525
N         61.16580      126.43764       56.50413
C         61.66262      127.19924       55.35514
C         62.52936      128.38245       55.77466
O         63.26110      128.89827       54.94183
C         60.47497      127.68320       54.48597
C         60.86695      128.11153       53.05684
C         59.62952      128.47710       52.20865
C         58.98037      129.83148       52.55619
N         59.81575      130.96003       52.13569
H         60.14871      126.37757       56.66302
H         62.26890      126.48577       54.75279
H         59.93918      128.49478       55.01699
H         59.77446      126.82704       54.36746
H         61.34496      127.22842       52.57995
H         61.60458      128.93689       53.04586
H         58.87585      127.66790       52.32780
H         59.91041      128.50457       51.13395
H         58.74781      129.90273       53.63988
H         58.01615      129.89890       52.00504
H         59.31463      131.85381       52.34322
H         60.72925      130.96574       52.64015
H         59.98303      130.91140       51.10334
N         62.45854      128.89653       57.03722
C         63.23009      130.04683       57.49462
C         64.16429      129.67708       58.64700
O         65.28995      130.15503       58.64463
C         62.30665      131.26545       57.74356
C         61.09027      131.03195       58.60084
O         59.97636      131.18700       58.12721
O         61.20271      130.71474       59.89512
H         61.78961      128.48371       57.70077
H         63.91090      130.40475       56.68980
H         61.92911      131.58211       56.74509
H         62.89947      132.11075       58.15467
N         63.80724      128.79196       59.62201
C         64.71086      128.33411       60.67591
C         64.26101      128.76172       62.05697
O         64.92763      128.41154       63.02188
H         62.86136      128.40058       59.61561
H         65.73724      128.73347       60.53142
H         64.77295      127.22543       60.63004
N         63.17756      129.56566       62.22545
C         62.74435      130.13739       63.49135
C         61.29035      129.79505       63.74467
O         60.65486      129.24784       62.85496
C         62.85997      131.67059       63.36594
C         64.23447      132.08481       62.89913
N         64.40046      132.66700       61.68567
O         65.20597      131.86970       63.60742
H         62.65486      129.85719       61.40109
H         63.37658      129.76187       64.32559
H         62.61307      132.17303       64.32432
H         62.11678      132.00836       62.60703
H         63.59633      132.83676       61.06229
H         65.33902      132.93336       61.35427
N         60.66824      130.13497       64.90932
C         59.22932      129.98594       65.08810
C         58.72856      128.57049       64.88208
O         59.51777      127.64475       64.75379
H         61.21488      130.57541       65.66574
H         58.73857      130.62622       64.32265
H         58.91808      130.35588       66.08875
N         57.38754      128.35401       64.77072
C         56.82091      127.05697       64.41586
C         57.35064      126.59227       63.02460
O         57.02613      127.59803       62.09931
C         55.26410      127.13123       64.36106
C         54.58102      127.33644       65.68544
C         54.76629      126.41005       66.72508
C         53.69441      128.40989       65.87088
C         54.07527      126.55374       67.92978
C         52.99884      128.54827       67.07589
C         53.18355      127.62084       68.10716
O         52.49339      127.75787       69.25685
H         56.75203      129.15849       64.89117
H         57.12847      126.30353       65.17184
H         54.85256      126.17088       63.98951
H         54.95944      127.91555       63.63261
H         55.43194      125.56573       66.59907
H         53.52155      129.12586       65.07670
H         54.22384      125.82673       68.71802
H         52.30486      129.36957       67.20245
H         52.58034      127.12696       69.98574
N         56.69348      125.31099       62.66713
C         57.11103      124.50000       61.50014
C         57.03592      125.28608       60.20983
O         57.81772      126.19548       60.02857
C         58.50074      123.79814       61.65418
C         58.82595      122.88999       60.42644
C         58.60876      122.97376       62.95057
C         57.84392      121.73642       60.17345
H         56.64081      124.68741       63.50470
H         56.35315      123.69246       61.44123
H         59.29068      124.57968       61.70193
H         59.84072      122.45496       60.55556
H         58.85282      123.50765       59.50779
H         58.54403      123.62536       63.84481
H         57.80708      122.20853       63.00974
H         59.59482      122.46351       62.99828
H         58.17333      121.16313       59.28182
H         57.80688      121.03900       61.03395
H         56.82244      122.10700       59.96042
N         56.17555      124.93853       59.21717
C         56.13258      125.66473       57.95233
C         54.71951      125.88899       57.42574
O         54.59592      126.54048       56.39674
C         57.00846      124.92562       56.93631
O         56.51426      123.62977       56.72016
H         55.63308      124.07137       59.32565
H         56.57451      126.67580       58.08256
H         58.04559      124.89715       57.34938
H         57.05215      125.47459       55.97208
H         57.28747      123.00922       56.76371
N         53.60912      125.37370       58.03639
C         52.26515      125.54647       57.48973
C         51.79272      126.98659       57.65430
O         52.42340      127.71786       58.40646
C         51.30979      124.57556       58.19394
H         53.70940      124.80129       58.88356
H         52.30787      125.27795       56.41145
H         51.27226      124.78805       59.28349
H         50.28605      124.63280       57.78913
H         51.67742      123.53615       58.04867
N         50.74053      127.52736       56.96717
C         49.94701      126.86787       55.93172
C         48.46740      127.22300       56.09448
O         48.18708      128.39832       56.28903
C         50.42614      127.36872       54.57256
H         50.56797      128.53550       57.11281
H         50.12341      125.78177       55.92461
H         51.50037      127.11324       54.44478
H         49.85045      126.87054       53.76330
H         50.30605      128.46907       54.48654
N         47.43775      126.32534       56.01657
C         47.56545      124.91868       55.65143
C         47.69843      124.01769       56.86497
O         47.92956      122.83138       56.67458
C         46.41911      124.44494       54.71038
C         45.00263      124.32732       55.32189
C         44.34157      125.64230       55.61388
O         43.94734      125.93785       56.86731
O         44.14236      126.44298       54.71375
H         46.49732      126.70053       56.18572
H         48.48364      124.79418       55.04429
H         46.69034      123.41942       54.37441
H         46.38361      125.08152       53.79930
H         45.04073      123.70334       56.24035
H         44.35217      123.80313       54.58848
N         47.57793      124.49683       58.13731
C         47.72865      123.66639       59.31467
H         48.55132      124.06933       59.94153
H         46.78592      123.68343       59.89924
H         47.96865      122.61162       59.06451
H         47.37123      125.49231       58.29979
Ca        58.93475      128.23930       60.99002
O         56.45140      129.29703       59.53370
H         55.88680      129.26486       58.72133
H         55.80723      129.28016       60.28526
O         58.36755      128.36488       57.26385
H         57.70862      128.30814       56.52702
H         58.92513      129.14762       57.03362

Ca 1.0



