%chk=apoCaM-CA-Ng.loop3.water2.frame526.chk
%nprocshared=20
%mem=10GB
%nosave
#b3lyp/svp scf=(tight,noincore,xqc) Test 
#IOP(5/87=12) Density=Current Pop=(MK,readradii) iop(6/33=2) iop(6/42=6)

apoCaM-CA-Ng.loop3.water2.frame526 

   0  1 
C         74.97898      -11.62920       81.22589
C         74.47524      -12.76496       82.06190
O         73.58470      -13.47586       81.62013
H         76.05693      -11.78196       81.01037
H         74.42698      -11.57695       80.26246
H         74.84206      -10.67175       81.76967
N         74.99010      -12.98062       83.30499
C         74.56925      -14.08288       84.15722
C         73.76358      -13.52844       85.30832
O         74.29580      -12.76648       86.10447
C         75.81232      -14.85360       84.64791
C         75.51027      -16.11712       85.40071
O         76.52509      -16.82805       85.92644
O         74.36932      -16.53363       85.50396
H         75.69669      -12.32202       83.66844
H         73.92494      -14.77981       83.58025
H         76.42408      -14.18583       85.29187
H         76.42608      -15.14125       83.77773
N         72.43928      -13.83342       85.41874
C         71.58128      -13.25081       86.44372
C         71.72262      -13.96543       87.78049
O         71.22151      -13.45390       88.77195
C         70.13551      -13.23553       85.92419
C         69.16112      -12.42832       86.79650
C         67.74740      -12.37543       86.19871
C         67.68822      -11.66023       84.83630
N         66.31561      -11.59604       84.34202
H         72.00926      -14.42321       84.68891
H         71.88740      -12.18722       86.56986
H         69.76700      -14.27702       85.79619
H         70.19013      -12.75361       84.92767
H         69.54362      -11.39203       86.92817
H         69.07628      -12.90111       87.79568
H         67.09966      -11.82389       86.91427
H         67.35361      -13.41013       86.09772
H         68.29716      -12.19977       84.08187
H         68.09142      -10.62828       84.94206
H         65.71706      -11.06002       85.01079
H         66.31091      -11.11177       83.41527
H         65.93636      -12.56327       84.21993
N         72.43143      -15.12475       87.89623
C         72.72029      -15.76459       89.16988
C         74.17752      -15.54550       89.55210
O         74.51699      -15.82411       90.69252
C         72.27374      -17.24549       89.16319
C         72.83080      -18.05315       88.01881
O         74.15377      -18.23636       87.87800
O         72.07210      -18.55243       87.20267
H         72.84589      -15.54440       87.05811
H         72.14997      -15.26420       89.98272
H         71.16466      -17.26309       89.08135
H         72.54501      -17.72905       90.12593
N         75.07137      -14.95152       88.70245
C         76.39281      -14.53305       89.12926
C         77.31507      -15.65474       89.53604
O         78.34096      -15.33444       90.12588
H         74.79823      -14.69239       87.74874
H         76.25653      -13.85085       89.99638
H         76.88946      -13.94891       88.32346
N         77.06902      -16.97148       89.26270
C         77.97746      -18.01894       89.72053
C         78.02558      -19.23583       88.81352
O         77.24428      -19.34544       87.87671
C         77.63978      -18.41920       91.17861
C         76.45274      -19.35888       91.30306
N         75.22080      -19.02539       90.85903
O         76.62147      -20.45625       91.81378
H         76.24438      -17.22136       88.70142
H         79.00770      -17.59658       89.69827
H         77.47666      -17.50481       91.78948
H         78.52011      -18.94241       91.60924
H         75.04512      -18.12180       90.41643
H         74.43366      -19.68508       90.94690
N         78.95453      -20.19992       89.05228
C         79.09212      -21.42363       88.28489
C         79.35959      -21.14758       86.82667
O         80.26218      -20.38104       86.51979
H         79.61635      -20.06186       89.83287
H         78.18383      -22.05134       88.40944
H         79.95463      -21.99298       88.69260
N         78.63014      -21.78165       85.86479
C         78.84054      -21.55775       84.43943
C         78.29894      -20.19316       84.02331
O         77.75664      -19.47681       84.85130
C         78.24913      -22.71159       83.59034
C         79.04436      -23.99317       83.75232
C         79.99521      -24.34520       82.77490
C         78.86260      -24.84358       84.85759
C         80.75218      -25.51222       82.90406
C         79.61579      -26.01754       84.97925
C         80.56548      -26.35340       84.00343
O         81.30120      -27.47857       84.10954
H         77.92498      -22.46925       86.16056
H         79.93487      -21.55421       84.23017
H         78.32971      -22.42328       82.52330
H         77.16957      -22.88367       83.77669
H         80.16361      -23.70811       81.91528
H         78.13305      -24.61549       85.62055
H         81.48587      -25.76176       82.14738
H         79.46024      -26.66608       85.83217
H         81.20248      -28.09163       84.85176
N         78.48828      -19.75394       82.74351
C         78.19019      -18.41590       82.23622
C         76.70685      -18.05307       82.25020
O         76.09074      -18.06604       83.30403
C         78.98892      -17.30941       83.00269
C         78.89311      -15.92033       82.30048
C         80.46158      -17.68917       83.23672
C         79.55431      -15.83048       80.91903
H         78.96749      -20.38238       82.08237
H         78.54937      -18.40416       81.18713
H         78.53908      -17.19368       84.01332
H         79.36887      -15.15835       82.95501
H         77.83315      -15.62985       82.17400
H         80.53788      -18.60388       83.85953
H         80.99162      -17.87567       82.28192
H         80.97581      -16.87550       83.79242
H         79.43318      -14.79999       80.52446
H         80.64065      -16.04222       80.97975
H         79.08389      -16.52013       80.19094
N         76.12683      -17.53450       81.12964
C         74.87920      -16.77206       81.18472
C         73.62196      -17.57626       81.46584
O         72.59534      -16.94861       81.69189
C         74.69289      -15.95416       79.89355
O         75.74865      -15.04070       79.73650
H         76.68410      -17.50658       80.26289
H         74.98570      -16.04091       82.01039
H         73.75080      -15.36945       79.93716
H         74.60332      -16.62508       79.00849
H         76.42856      -15.46857       79.15481
N         73.58381      -18.93669       81.43541
C         72.33641      -19.66429       81.65054
C         71.86709      -19.53275       83.09467
O         72.62861      -19.92184       83.96808
C         72.50344      -21.14572       81.29744
H         74.43764      -19.45922       81.19100
H         71.59834      -19.27444       80.94156
H         73.25729      -21.63378       81.94420
H         71.53392      -21.67551       81.41846
H         72.82305      -21.24636       80.23826
N         70.64720      -19.03924       83.47735
C         69.59159      -18.52602       82.60261
C         69.14592      -19.58656       81.60970
O         68.79782      -20.67196       82.05413
C         68.37903      -18.10648       83.45409
H         70.45793      -19.03743       84.49331
H         69.97084      -17.62102       82.09471
H         68.67313      -17.31689       84.17767
H         67.55977      -17.70886       82.82041
H         67.98020      -18.97496       84.02287
N         69.15334      -19.40877       80.25241
C         69.46721      -18.16374       79.54327
C         69.74447      -18.46321       78.07879
O         70.81064      -18.09753       77.60104
C         68.34508      -17.11424       79.73366
C         68.67568      -15.77715       79.04711
C         67.70019      -14.70391       79.44238
O         67.01345      -14.15052       78.59902
O         67.60645      -14.32227       80.73176
H         68.92374      -20.24209       79.68879
H         70.40475      -17.72338       79.94122
H         68.23780      -16.91301       80.81433
H         67.37042      -17.49908       79.36180
H         68.66664      -15.91704       77.94399
H         69.68742      -15.43367       79.35217
N         68.86701      -19.17134       77.31576
C         69.17115      -19.52738       75.94595
H         70.12959      -20.09127       75.90531
H         68.36994      -20.17514       75.53251
H         69.25751      -18.61167       75.32494
H         67.98280      -19.50817       77.72492
Ca        74.89224      -19.39759       86.08553
O         75.25540      -21.10386       83.65406
H         74.79098      -21.97154       83.76219
H         75.57155      -21.10290       82.71610
O         75.24612      -22.19572       86.71861
H         75.46397      -22.96344       86.13300
H         75.80602      -22.32558       87.52444

Ca 1.0



