%chk=apoCaM-CA-Ng.loop3.water2.frame987.chk
%nprocshared=20
%mem=10GB
%nosave
#b3lyp/svp scf=(tight,noincore,xqc) Test 
#IOP(5/87=12) Density=Current Pop=(MK,readradii) iop(6/33=2) iop(6/42=6)

apoCaM-CA-Ng.loop3.water2.frame987 

   0  1 
C         51.48169      115.74154       73.99612
C         51.01598      116.92250       74.79315
O         49.85924      117.29669       74.66529
H         52.54051      115.49329       74.21853
H         50.85430      114.86078       74.25020
H         51.38359      115.95958       72.91287
N         51.85796      117.55208       75.66136
C         51.42056      118.65220       76.51847
C         51.00214      119.85782       75.67655
O         51.36769      119.90285       74.50919
C         52.54432      118.95861       77.54517
C         52.16513      119.70959       78.79086
O         53.10773      119.91597       79.72723
O         51.02142      120.06136       79.01411
H         52.82132      117.19322       75.75332
H         50.54990      118.27673       77.06103
H         53.38682      119.46782       77.02993
H         52.92375      117.98921       77.93384
N         50.21717      120.85816       76.18300
C         49.81523      122.02774       75.39973
C         50.51052      123.29481       75.87913
O         50.46302      124.28944       75.16921
C         48.27502      122.17464       75.36156
C         47.63745      122.56032       76.71358
C         46.10634      122.65424       76.58716
C         45.40300      123.09959       77.88324
N         45.71668      124.48536       78.24166
H         49.88876      120.79243       77.15118
H         50.15310      121.88844       74.35062
H         47.83926      121.21680       75.00090
H         48.01540      122.96712       74.62557
H         48.05232      123.54024       77.02590
H         47.87747      121.80433       77.48894
H         45.72217      121.64592       76.31711
H         45.82933      123.35924       75.77344
H         45.66820      122.41830       78.72108
H         44.30481      123.02314       77.71900
H         46.72651      124.59220       78.48339
H         45.46831      125.12564       77.45227
H         45.15091      124.75670       79.07822
N         51.18304      123.32996       77.06441
C         51.97196      124.45917       77.53336
C         53.39506      123.99325       77.82997
O         54.31624      124.56556       77.26376
C         51.24966      125.20230       78.68143
C         50.64856      124.36086       79.77422
O         49.43994      124.37029       79.94638
O         51.41616      123.64342       80.60258
H         51.14088      122.51401       77.68571
H         52.06602      125.23508       76.73929
H         50.39948      125.74390       78.20911
H         51.92625      125.97067       79.11410
N         53.65317      122.91917       78.63234
C         54.99110      122.37914       78.84864
C         55.36429      122.25527       80.31122
O         56.45037      121.76231       80.58040
H         52.86728      122.41137       79.05506
H         55.76730      122.98723       78.33840
H         55.02322      121.35845       78.40948
N         54.52441      122.65003       81.31030
C         54.81884      122.49995       82.72917
C         53.76017      121.56503       83.35509
O         53.42674      120.54679       82.46301
C         54.76104      123.89632       83.37929
C         55.72992      124.84200       82.71199
N         55.28223      125.91921       82.02259
O         56.92991      124.62352       82.78103
H         53.62118      123.06626       81.07517
H         55.82350      122.04621       82.87492
H         54.98749      123.85315       84.46410
H         53.72495      124.28897       83.26567
H         54.27362      126.11393       81.93604
H         55.94626      126.55551       81.55708
N         54.16252      120.99264       84.65421
C         52.99056      120.41706       85.33825
C         52.57738      119.05633       84.80384
O         53.29141      118.44835       84.01884
H         54.49811      121.77700       85.25804
H         52.13330      121.12335       85.24688
H         53.20092      120.30004       86.42408
N         51.37949      118.53752       85.19392
C         50.79830      117.28766       84.68808
C         50.57708      117.33295       83.17814
O         50.97001      118.30035       82.54756
C         49.45824      117.02943       85.42341
C         49.69458      116.75112       86.88598
C         50.39055      115.59169       87.26983
C         49.22468      117.62951       87.87468
C         50.61692      115.31701       88.61899
C         49.45719      117.35493       89.22651
C         50.15230      116.19967       89.60333
O         50.36656      115.94704       90.90991
H         50.83341      119.09144       85.87241
H         51.49033      116.44151       84.88774
H         48.91800      116.14965       85.02130
H         48.79795      117.91276       85.27860
H         50.75349      114.89587       86.52317
H         48.68668      118.52845       87.60059
H         51.15290      114.41790       88.89601
H         49.09652      118.04105       89.98195
H         50.84133      115.15799       91.20843
N         49.97053      116.28858       82.53224
C         49.77209      116.17614       81.08611
C         48.92024      117.32336       80.53018
O         49.29244      118.47725       80.67106
C         51.13725      116.03979       80.34295
C         50.96449      115.79823       78.81840
C         52.00428      114.92496       80.96081
C         50.26925      114.49464       78.41023
H         49.65014      115.48505       83.09113
H         49.23008      115.22259       80.91134
H         51.69935      116.99220       80.45732
H         51.96723      115.80748       78.33869
H         50.37597      116.62868       78.39893
H         52.97298      114.84707       80.42250
H         52.23116      115.14498       82.02456
H         51.48860      113.94302       80.91869
H         50.20819      114.45137       77.30170
H         50.84180      113.60849       78.75060
H         49.23566      114.44292       78.80439
N         47.79380      117.06634       79.80556
C         47.03024      118.12012       79.13533
C         45.53154      117.88673       79.16638
O         44.82843      118.64040       78.50407
C         47.50238      118.22244       77.68200
O         47.31934      117.00467       77.01480
H         47.56425      116.08395       79.59394
H         47.22485      119.11353       79.59526
H         48.56951      118.49056       77.70468
H         46.95502      119.03710       77.15539
H         47.66273      117.14500       76.09543
N         44.95448      116.89534       79.90443
C         43.52543      116.61628       79.84678
C         42.83788      117.08165       81.11947
O         43.52920      117.33261       82.09753
C         43.33955      115.11680       79.60482
H         45.53018      116.32373       80.54040
H         43.07477      117.17351       79.00125
H         43.84819      114.81751       78.66422
H         43.77771      114.53561       80.44493
H         42.27951      114.84653       79.51658
N         41.49221      117.31580       81.19958
C         40.55137      117.24068       80.08442
C         39.15792      116.90154       80.59823
O         38.66433      117.64715       81.43380
C         40.48632      118.60205       79.37585
H         41.14842      117.72987       82.08090
H         40.88924      116.51371       79.33107
H         41.48054      118.88767       78.97485
H         39.77359      118.55233       78.52340
H         40.15121      119.40033       80.07263
N         38.40598      115.85264       80.14704
C         38.81791      114.88059       79.14432
C         39.84704      113.88276       79.67059
O         40.33681      113.09656       78.87036
C         37.61435      114.10332       78.53347
C         36.80026      113.18299       79.47727
C         35.48164      113.76344       79.94482
O         35.41699      114.83628       80.75097
O         34.43904      113.23010       79.59822
H         37.45723      115.79235       80.51826
H         39.25998      115.43786       78.28945
H         38.07040      113.44206       77.76227
H         36.92944      114.77369       77.96990
H         37.41790      112.81486       80.32346
H         36.52499      112.28728       78.87710
N         40.21202      113.82797       80.98573
C         41.16881      112.86711       81.50316
H         42.01916      113.40570       81.96987
H         40.67681      112.23635       82.27269
H         41.57313      112.19680       80.71488
H         39.79492      114.47540       81.66774
Ca        51.26100      121.05792       81.95892
O         48.60518      120.38520       83.46426
H         49.07594      120.35369       84.33464
H         48.04292      119.57035       83.45368
O         48.28881      121.43854       80.55158
H         48.73946      121.81938       79.75729
H         47.37304      121.81327       80.52314

Ca 1.0



