%chk=apoCaM-CA-Ng.loop1.water4.frame43.chk
%nprocshared=20
%mem=10GB
%nosave
#b3lyp/svp scf=(tight,noincore,xqc) Test 
#IOP(5/87=12) Density=Current Pop=(MK,readradii) iop(6/33=2) iop(6/42=6)

apoCaM-CA-Ng.loop1.water4.frame43 

   0  1 
C         71.15361       54.23379       69.33384
C         71.13512       53.21349       70.43324
O         70.49106       53.43835       71.44783
H         70.54874       55.12382       69.60934
H         72.19876       54.55804       69.14396
H         70.73653       53.78941       68.40599
N         71.84512       52.06021       70.29411
C         71.90446       51.01601       71.31368
C         73.30903       50.86768       71.89570
O         73.50299       50.01565       72.75120
C         71.37996       49.68194       70.73224
C         72.23597       49.06126       69.66196
O         72.43340       49.63066       68.60116
O         72.75060       47.83305       69.86206
H         72.38428       51.93197       69.42486
H         71.23577       51.27695       72.16217
H         70.35382       49.83493       70.33296
H         71.31952       48.94409       71.55372
N         74.33854       51.65716       71.47686
C         75.71581       51.52682       71.93136
C         76.21732       52.86164       72.46329
O         75.96836       53.85871       71.79897
C         76.57381       51.10555       70.72580
C         76.22304       49.69192       70.24999
C         77.22739       49.21553       69.19207
C         77.00395       47.75485       68.77279
N         75.73744       47.56527       68.06738
H         74.16883       52.37193       70.75566
H         75.82701       50.73936       72.69702
H         77.62775       51.08946       71.03037
H         76.47746       51.83550       69.89150
H         75.18772       49.68668       69.85225
H         76.28080       48.99799       71.11798
H         78.24730       49.27462       69.63286
H         77.19448       49.87971       68.30134
H         77.04084       47.09700       69.67044
H         77.83507       47.45726       68.09701
H         74.93401       47.78518       68.69161
H         75.70413       48.17316       67.21728
H         75.65792       46.56485       67.77533
N         77.01060       53.01723       73.57111
C         77.55043       51.99422       74.46627
C         78.29111       50.87556       73.73215
O         77.98109       49.71904       73.98218
C         76.46637       51.44004       75.42692
C         75.84747       52.50398       76.28252
O         74.64282       52.69746       76.24657
O         76.61385       53.21993       77.12752
H         77.33329       53.97818       73.76903
H         78.31045       52.48807       75.11340
H         76.94062       50.71199       76.12013
H         75.66873       50.91420       74.86477
N         79.27743       51.07606       72.81020
C         79.72043       52.36448       72.28936
C         80.66871       52.14135       71.11449
O         80.37360       51.26698       70.31140
H         79.68372       50.22247       72.39690
H         80.14909       52.96701       73.11200
H         78.85131       52.89899       71.86640
N         81.81635       52.84477       70.89231
C         82.24704       54.04094       71.60463
C         83.47095       53.78508       72.47013
O         83.89679       54.69987       73.16012
C         82.48866       55.16854       70.57280
C         83.58411       54.84387       69.58463
O         83.32960       54.75424       68.39383
O         84.84998       54.65805       70.00583
H         82.40912       52.52896       70.10719
H         81.45172       54.39874       72.28401
H         82.74872       56.11537       71.09055
H         81.53840       55.33610       70.01682
N         84.07181       52.56211       72.50347
C         85.20129       52.23113       73.35176
C         84.86164       51.06226       74.25013
O         85.78264       50.39704       74.70750
H         83.72007       51.79820       71.91069
H         85.56098       53.08593       73.96485
H         86.03114       51.92836       72.67838
N         83.56778       50.76336       74.57230
C         83.17120       49.60414       75.36969
C         82.07391       48.82468       74.65598
O         81.59842       49.29507       73.62887
C         82.70802       50.06311       76.77230
C         81.44313       50.93908       76.73036
O         83.75830       50.77418       77.37714
H         82.81927       51.39691       74.24908
H         84.04439       48.92729       75.50732
H         82.49038       49.15168       77.37412
H         83.51127       50.91053       78.32852
H         81.14887       51.21806       77.76364
H         81.61852       51.87273       76.15740
H         80.59571       50.38564       76.27371
N         81.62092       47.62323       75.12167
C         80.52135       46.89790       74.48199
C         79.56314       46.34582       75.54048
O         80.00813       45.59161       76.39738
C         81.03525       45.73389       73.58112
C         82.17926       46.18630       72.63885
C         79.84692       45.19776       72.75709
C         82.72119       45.05869       71.75504
H         82.09849       47.19234       75.93029
H         79.97127       47.58945       73.80359
H         81.43448       44.92437       74.23195
H         83.02890       46.54357       73.25852
H         81.83988       47.02234       71.98940
H         80.11025       44.29583       72.17207
H         79.02725       44.91502       73.43054
H         79.46417       45.98076       72.06487
H         81.95853       44.70935       71.02972
H         83.58648       45.43088       71.16866
H         83.05439       44.20322       72.38040
N         78.22764       46.62408       75.49944
C         77.23891       46.05796       76.42610
C         76.25122       45.15190       75.69311
O         75.99572       44.05539       76.16713
C         76.51362       47.16135       77.23264
C         75.60663       48.07118       76.39788
O         77.47624       47.93830       77.89823
H         77.89717       47.24806       74.75129
H         77.74652       45.43122       77.19505
H         75.86855       46.64289       77.98333
H         77.04517       48.29685       78.71790
H         74.77897       47.49392       75.93895
H         75.14619       48.84048       77.05303
H         76.18236       48.57381       75.60025
N         75.70081       45.53592       74.50176
C         74.77353       44.75894       73.67906
C         73.36705       44.71574       74.27872
O         73.16393       45.09414       75.42397
C         75.30311       43.31970       73.35484
C         76.77021       43.29273       72.93479
O         74.54805       42.75066       72.31913
H         75.98596       46.44059       74.10288
H         74.68347       45.31876       72.71952
H         75.20363       42.69223       74.27021
H         74.65507       41.76526       72.38077
H         77.07156       42.25360       72.68125
H         76.94653       43.94590       72.05443
H         77.39583       43.60272       73.78863
N         72.34252       44.24082       73.51646
C         70.97023       44.00477       73.96784
C         70.15034       45.26178       74.24533
O         69.00806       45.11308       74.65837
C         70.27411       43.07704       72.94475
C         70.08385       43.71666       71.54695
C         70.42860       42.75713       70.38950
C         71.95141       42.50285       70.30687
N         72.30798       41.66786       69.16390
H         72.58101       43.95243       72.56275
H         71.02575       43.42028       74.91317
H         69.29562       42.69893       73.31428
H         70.92109       42.17813       72.88521
H         70.71533       44.62129       71.41528
H         69.03061       44.06510       71.47444
H         70.11851       43.24290       69.43972
H         69.86978       41.80197       70.49553
H         72.31651       42.00401       71.22625
H         72.47645       43.48026       70.20747
H         71.86848       40.72446       69.25871
H         72.00208       42.12381       68.27450
H         73.34866       41.55633       69.14381
N         70.65747       46.52096       74.10585
C         69.91731       47.70524       74.53387
C         68.81175       48.04926       73.55089
O         69.09729       48.24635       72.37895
C         70.89324       48.88224       74.74096
C         70.26425       50.03510       75.53448
C         71.33729       51.03882       75.95143
O         70.81695       51.94535       76.88145
O         71.79253       51.77462       74.85109
H         71.63134       46.64029       73.79387
H         69.49733       47.49287       75.54249
H         71.30372       49.23916       73.77930
H         71.73912       48.49951       75.35480
H         69.84276       49.61218       76.47200
H         69.44372       50.52812       74.96837
N         67.51865       48.15678       73.96031
C         66.45287       48.50799       73.04357
H         65.48602       48.56724       73.58672
H         66.65767       49.49803       72.58074
H         66.36729       47.74080       72.24470
H         67.28221       48.00406       74.95171
Ca        71.28863       53.81806       75.70994
O         73.28936       54.35129       73.49602
H         72.37985       54.67306       73.27369
H         73.88584       55.09247       73.22344
O         71.83361       56.69885       75.74425
H         72.25624       57.58737       75.63826
H         70.89070       56.89377       75.97475
O         73.05691       54.00839       78.81903
H         72.71286       53.18042       79.23938
H         72.51013       54.73315       79.21440
O         74.70237       55.91321       76.19688
H         75.49227       55.36593       75.96132
H         74.81657       56.11485       77.15949

Ca 1.0



