%chk=apoCaM-CA-Ng.loop1.water1.frame829.chk
%nprocshared=20
%mem=10GB
%nosave
#b3lyp/svp scf=(tight,noincore,xqc) Test 
#IOP(5/87=12) Density=Current Pop=(MK,readradii) iop(6/33=2) iop(6/42=6)

apoCaM-CA-Ng.loop1.water1.frame829 

   0  1 
C         49.22115       76.56874      116.20280
C         48.32767       75.46337      115.72030
O         48.34501       74.37055      116.26666
H         50.13940       76.62122      115.58572
H         48.68373       77.53953      116.09444
H         49.43897       76.45624      117.28325
N         47.47059       75.73123      114.70739
C         46.36008       74.87554      114.30147
C         46.65172       73.96910      113.12927
O         47.51448       74.24017      112.31177
C         45.05652       75.68349      114.16764
C         45.13818       76.98552      113.37089
O         46.27103       77.39430      112.74763
O         44.23142       77.78844      113.50510
H         47.53583       76.68412      114.35196
H         46.18938       74.15135      115.13058
H         44.80338       75.98004      115.20853
H         44.22626       75.03365      113.80823
N         46.02718       72.75642      113.10609
C         46.49285       71.62641      112.31649
C         46.01185       71.66304      110.87118
O         46.25902       70.71501      110.13934
C         46.21313       70.29615      113.06801
C         46.70799       70.33339      114.55014
C         46.67649       68.94060      115.20601
C         47.21885       68.86344      116.65648
N         48.60755       69.31821      116.78270
H         45.32738       72.57084      113.83712
H         47.60423       71.67429      112.25871
H         46.76918       69.49816      112.52611
H         45.13122       70.05143      113.04460
H         46.07573       71.02017      115.15379
H         47.75015       70.71292      114.56494
H         47.28396       68.25339      114.58305
H         45.62693       68.57339      115.21743
H         47.17076       67.79363      116.96329
H         46.57848       69.43673      117.36257
H         48.96383       69.06818      117.73505
H         49.21740       68.85525      116.07088
H         48.66061       70.35711      116.68308
N         45.43188       72.78419      110.35932
C         45.35915       73.05705      108.93040
C         46.72591       73.56025      108.45011
O         47.32705       74.35403      109.15708
C         44.18633       74.03607      108.64805
C         44.15267       75.35220      109.37607
O         43.10092       75.96632      109.45962
O         45.24808       75.86894      109.93380
H         45.27685       73.58479      110.98271
H         45.08033       72.13547      108.38208
H         43.28079       73.49632      108.98781
H         44.08004       74.23930      107.56340
N         47.31746       73.18617      107.27603
C         46.76987       72.26896      106.29962
C         46.82765       70.85806      106.78355
O         47.77325       70.47409      107.46073
H         48.21829       73.62457      107.02881
H         47.37129       72.31914      105.37159
H         45.72672       72.55821      106.04600
N         45.82784       70.01511      106.43622
C         45.65362       68.71033      107.02737
C         46.11286       67.67450      106.02167
O         45.44615       67.45263      105.01949
C         44.17558       68.65021      107.45358
C         43.78406       67.47802      108.28840
O         42.61878       67.35861      108.63126
O         44.69695       66.58141      108.70315
H         45.11159       70.34458      105.76978
H         46.29452       68.62855      107.93345
H         43.54161       68.69336      106.53974
H         43.95450       69.56554      108.05300
N         47.35110       67.11551      106.17160
C         48.00209       66.32621      105.14253
C         48.35537       67.15689      103.92310
O         48.63647       66.55747      102.89408
H         47.89740       67.31759      107.02133
H         47.36949       65.45185      104.87443
H         48.97004       65.93454      105.52577
N         48.45751       68.52600      103.97853
C         48.83653       69.33342      102.82173
C         47.80242       70.39462      102.48351
O         46.92049       70.69553      103.27508
C         50.24368       69.99112      102.97522
C         50.41150       70.96375      104.15258
O         51.23999       69.00844      103.06263
H         48.28730       69.01287      104.86935
H         48.89029       68.68139      101.92395
H         50.42873       70.59942      102.06515
H         51.31594       68.60070      102.16051
H         49.56069       71.66451      104.24393
H         50.53856       70.42251      105.11266
H         51.32599       71.57579      103.97839
N         47.92055       71.03196      101.28531
C         47.09866       72.14337      100.81826
C         46.75173       72.02109       99.31134
O         46.09161       72.92020       98.80847
C         47.83307       73.49605      101.09673
C         49.30625       73.40490      100.62443
C         47.73110       73.92641      102.57837
C         50.06522       74.71958      100.61291
H         48.71520       70.75632      100.69138
H         46.12469       72.16383      101.35674
H         47.29341       74.28612      100.53402
H         49.32725       73.00580       99.58897
H         49.86075       72.70412      101.28498
H         48.32421       73.28127      103.25295
H         48.08088       74.97424      102.69532
H         46.67306       73.91201      102.92120
H         51.10526       74.51161      100.28004
H         49.59069       75.41839       99.89473
H         50.10865       75.17281      101.62296
N         47.11754       70.94879       98.53775
C         46.70697       70.76246       97.13945
C         47.67078       71.47496       96.18107
O         48.87436       71.30220       96.31843
C         46.67716       69.24321       96.78212
C         45.74838       68.39790       97.68478
O         46.26158       69.10133       95.44550
H         47.62843       70.17040       98.96989
H         45.66802       71.13615       96.99594
H         47.71275       68.85321       96.89143
H         46.24034       68.13043       95.23870
H         44.67985       68.63898       97.50167
H         45.89344       67.32156       97.43916
H         45.97437       68.51485       98.76447
N         47.19604       72.20613       95.12430
C         48.04609       72.85649       94.11626
C         47.71262       74.34273       93.99129
O         48.62807       75.15387       93.98052
C         47.97567       72.11207       92.75074
C         48.98281       72.71487       91.75116
O         46.67921       72.13270       92.20673
H         46.17540       72.24666       94.99880
H         49.11585       72.77097       94.41373
H         48.27374       71.05646       92.94959
H         46.72428       71.67544       91.32363
H         48.59815       73.67176       91.34630
H         49.96339       72.90879       92.23647
H         49.15095       72.01314       90.90672
N         46.41909       74.76050       93.86963
C         45.98725       76.15231       93.73310
C         44.95465       76.50230       94.81479
O         44.11034       75.66847       95.11291
C         45.32860       76.32134       92.34831
C         46.33108       76.19427       91.18876
C         45.65412       76.31950       89.81681
C         44.92939       75.03758       89.38643
N         44.48301       75.16215       87.99878
H         45.67853       74.04626       93.85577
H         46.84145       76.86490       93.79708
H         44.89101       77.34147       92.28051
H         44.51413       75.57551       92.24133
H         46.89761       75.24064       91.22389
H         47.06141       77.02703       91.28297
H         46.44598       76.51838       89.06531
H         44.94365       77.17709       89.80844
H         44.05977       74.84694       90.05089
H         45.62403       74.16855       89.45944
H         43.91436       74.32637       87.73500
H         43.90533       76.02568       87.88243
H         45.31551       75.21593       87.36552
N         44.89285       77.75923       95.36280
C         43.84796       78.17476       96.31129
C         44.15271       77.68897       97.72202
O         43.35180       76.91654       98.23047
C         43.53884       79.69790       96.20567
C         42.50788       80.19715       97.23555
C         42.08085       81.60109       96.90399
O         41.08168       81.78725       96.22720
O         42.84713       82.65089       97.25741
H         45.55667       78.46935       95.02008
H         42.88781       77.69683       96.00162
H         43.12652       79.86334       95.18537
H         44.43082       80.34044       96.29495
H         42.92974       80.17227       98.26656
H         41.61077       79.54295       97.22631
N         45.25750       78.03570       98.44510
C         46.32608       78.91244       98.01444
H         47.24746       78.31318       97.88169
H         46.13461       79.41963       97.06230
H         46.50428       79.68776       98.78990
H         45.36741       77.61457       99.38063
Ca        47.09341       76.67042      110.81183
O         49.76040       75.82701      111.99129
H         49.56382       75.31507      112.81388
H         50.69748       76.11264      112.11522

Ca 1.0



