%chk=apoCaM-CA-Ng.loop2.water4.frame1190.chk
%nprocshared=20
%mem=10GB
%nosave
#b3lyp/svp scf=(tight,noincore,xqc) Test 
#IOP(5/87=12) Density=Current Pop=(MK,readradii) iop(6/33=2) iop(6/42=6)

apoCaM-CA-Ng.loop2.water4.frame1190 

   -2  1 
C         38.96041       24.66929       91.25584
C         38.20431       24.35618       92.51948
O         36.99186       24.51062       92.49965
H         40.05040       24.50960       91.32633
H         38.57004       24.03632       90.43212
H         38.79473       25.73617       90.99611
N         38.79157       23.94405       93.68089
C         40.22461       23.73235       93.88899
C         40.56451       23.92834       95.36729
O         39.81356       24.61912       96.04423
C         40.67125       22.38857       93.24130
C         40.00397       21.15302       93.80054
O         40.25684       20.73675       95.05788
O         39.25733       20.49595       93.09543
H         38.16196       23.80633       94.48631
H         40.78479       24.55710       93.40054
H         41.77142       22.26344       93.30157
H         40.42924       22.43722       92.15950
N         41.67965       23.38846       95.94557
C         42.03051       23.56424       97.35811
C         40.99859       22.97494       98.32388
O         41.21263       23.05929       99.52509
C         42.32542       25.03708       97.67128
H         42.31904       22.81884       95.37480
H         42.97978       23.01256       97.54302
H         43.12713       25.40650       96.99667
H         41.43050       25.67862       97.55331
H         42.68723       25.13662       98.71717
N         39.91101       22.28454       97.87601
C         39.01104       21.52098       98.72397
C         39.45167       20.06996       98.65155
O         40.53018       19.81495       98.12765
C         37.53673       21.80834       98.32754
C         37.15948       21.48676       96.90454
O         37.11974       20.21405       96.47876
O         36.80793       22.37861       96.14939
H         39.78054       22.14421       96.87351
H         39.11122       21.81488       99.79084
H         37.35978       22.89259       98.49548
H         36.84244       21.25609       98.99389
N         38.70986       19.06286       99.18013
C         39.16379       17.68332       99.16462
C         38.27423       16.79453       98.28772
O         38.40454       16.96766       96.89647
H         37.79976       19.27097       99.61549
H         39.15928       17.30610      100.21144
H         40.20700       17.57611       98.79921
N         36.86782       16.78382       98.70129
C         36.05841       15.79269       97.96000
C         34.58487       16.05188       98.24893
O         33.94683       15.23776       98.90572
C         36.40489       14.30008       98.27586
C         37.74224       13.78796       97.78546
N         38.88603       14.01300       98.47218
O         37.77951       13.09682       96.77754
H         36.80867       16.57184       99.72562
H         36.18170       15.92758       96.86258
H         35.64513       13.70903       97.71473
H         36.27412       14.05182       99.35058
H         38.87968       14.53449       99.35957
H         39.78202       13.63632       98.12770
N         33.95152       17.15168       97.74260
C         32.52471       17.37520       97.95872
C         32.21771       17.65140       99.42136
O         33.15392       17.82536      100.18982
H         34.47598       17.80968       97.14510
H         31.98404       16.46890       97.61317
H         32.17359       18.23689       97.35090
N         30.94755       17.69828       99.92696
C         29.72301       17.41019       99.18186
C         28.55550       18.21645       99.74330
O         28.32058       18.16862      100.94379
C         29.39431       15.89351       99.22342
C         29.12184       15.33722      100.63068
O         28.27239       15.65769       98.41010
H         30.86284       17.83732      100.94610
H         29.86497       17.66694       98.10882
H         30.27419       15.35437       98.80363
H         28.30672       14.70580       98.13149
H         29.99189       15.50547      101.29790
H         28.21669       15.79208      101.08114
H         28.93036       14.24613      100.56803
N         27.76336       18.97341       98.93353
C         26.59832       19.69877       99.45656
C         25.46947       18.71561       99.78725
O         25.51874       17.60722       99.26954
C         26.10876       20.78512       98.44872
C         25.49977       20.16071       97.15839
C         27.26532       21.75847       98.14225
C         25.01624       21.19234       96.13932
H         28.00048       19.02259       97.93247
H         26.93718       20.21943      100.37809
H         25.30600       21.37401       98.94276
H         24.61644       19.54955       97.44438
H         26.22492       19.49354       96.64881
H         27.66887       22.17942       99.08718
H         28.09194       21.25309       97.60008
H         26.91903       22.61198       97.52737
H         25.87063       21.76152       95.71899
H         24.51916       20.66892       95.29514
H         24.29114       21.89232       96.60470
N         24.39715       18.99223      100.59301
C         24.20207       20.17667      101.43192
C         22.91420       20.92177      101.08780
O         22.20231       20.50139      100.18604
C         24.18560       19.71336      102.91563
C         23.04345       18.79640      103.31261
O         22.99535       18.31595      104.56913
O         22.15895       18.48938      102.52831
H         23.68777       18.24781      100.66877
H         25.04485       20.88485      101.31102
H         24.15137       20.59522      103.58795
H         25.13911       19.17853      103.11753
N         22.55202       22.04454      101.78588
C         21.29295       22.76036      101.56793
C         21.25356       24.06186      102.37034
O         21.49069       24.00239      103.56941
C         20.08367       21.88797      101.98635
C         18.77142       22.52879      101.58228
C         18.14298       23.49249      102.39477
C         18.17678       22.17801      100.35786
C         16.94377       24.08816      101.98455
C         16.98269       22.77939       99.95085
C         16.36604       23.73324      100.76306
H         23.19816       22.39721      102.50502
H         21.19968       22.96227      100.48634
H         20.09154       21.66901      103.07702
H         20.14893       20.90441      101.48058
H         18.57844       23.78616      103.34142
H         18.64662       21.44818       99.71100
H         16.46321       24.82980      102.61027
H         16.53783       22.50774       99.00244
H         15.44171       24.19811      100.44399
N         20.88042       25.26312      101.82033
C         20.43284       25.46153      100.45186
C         21.56380       25.30949       99.46999
O         21.43341       24.55483       98.51546
C         19.86486       26.89423      100.43884
C         19.44977       27.08188      101.88868
C         20.64079       26.45799      102.60256
H         19.59045       24.76811      100.24009
H         20.67128       27.63742      100.25398
H         19.06544       27.06558       99.68479
H         19.23803       28.13440      102.17376
H         18.54979       26.46139      102.09169
H         21.51930       27.13418      102.49323
H         20.44721       26.27288      103.67961
N         22.69949       26.04670       99.63799
C         23.77486       26.07923       98.67007
C         23.64772       27.41679       97.95857
O         23.76846       28.43542       98.62577
C         25.18268       25.95435       99.31390
C         25.43910       24.71380      100.19744
C         24.95656       24.82766      101.62422
O         25.23062       23.83184      102.48744
O         24.40160       25.83344      102.03656
H         22.74830       26.70420      100.42861
H         23.66356       25.23519       97.95866
H         25.45113       26.86099       99.89975
H         25.89050       25.90078       98.45781
H         26.54093       24.59245      100.28296
H         25.03172       23.80226       99.71175
N         23.33940       27.53976       96.63763
C         23.15725       26.42440       95.73677
H         22.85993       26.80143       94.73507
H         24.11063       25.86486       95.63487
H         22.35357       25.75199       96.10369
H         23.21118       28.48882       96.25359
Ca        39.32023       18.84952       95.93708
O         36.95311       18.06985       93.73956
H         36.06595       17.98090       94.17021
H         37.06012       17.23528       93.21755
O         40.25966       17.79597       92.63268
H         39.64225       17.21708       92.11889
H         40.79605       18.26120       91.94240
O         41.77835       17.30483       95.92690
H         41.88388       16.47293       96.45294
H         42.41572       17.21165       95.17527
O         39.01615       15.57806       94.51797
H         39.74264       15.01255       94.15676
H         38.65599       15.05571       95.27640

Ca 1.0



