%chk=apoCaM-CA-Ng.loop1.water6.frame644.chk
%nprocshared=20
%mem=10GB
%nosave
#b3lyp/svp scf=(tight,noincore,xqc) Test 
#IOP(5/87=12) Density=Current Pop=(MK,readradii) iop(6/33=2) iop(6/42=6)

apoCaM-CA-Ng.loop1.water6.frame644 

   0  1 
C        -22.04256       45.31940       40.59313
C        -23.17251       44.39875       40.23171
O        -23.13850       43.78609       39.17481
H        -21.27019       45.33347       39.79588
H        -22.42642       46.35152       40.73593
H        -21.57475       44.97641       41.54044
N        -24.22047       44.25733       41.08505
C        -25.36560       43.39098       40.82546
C        -26.41841       44.08455       39.91498
O        -26.64240       45.44568       40.18329
C        -25.85401       42.65834       42.11342
C        -26.16965       43.43724       43.36789
O        -26.60462       42.76551       44.45124
O        -25.97989       44.63599       43.45728
H        -24.19566       44.81095       41.95124
H        -25.03536       42.54355       40.18533
H        -25.04917       41.95273       42.41342
H        -26.74196       42.04519       41.85404
N        -27.65618       43.30455       39.73486
C        -28.60136       43.78310       38.69906
C        -29.98895       43.43146       39.21286
O        -30.70920       42.63769       38.62329
C        -28.30288       43.17624       37.29301
C        -29.21610       43.78254       36.20047
C        -29.00993       43.14605       34.81777
C        -29.84915       43.82142       33.70862
N        -31.29340       43.75091       33.94981
H        -27.43910       42.29291       39.57442
H        -28.54888       44.89082       38.61343
H        -28.43353       42.07237       37.32943
H        -27.24887       43.38467       37.01355
H        -29.02288       44.87590       36.13826
H        -30.27059       43.61732       36.47423
H        -29.26856       42.06535       34.86783
H        -27.94044       43.23657       34.53119
H        -29.62502       43.30949       32.74652
H        -29.54638       44.88683       33.60453
H        -31.55808       44.32689       34.77781
H        -31.79623       44.14556       33.12177
H        -31.59648       42.76010       34.08846
N        -30.38237       43.97640       40.39117
C        -31.62138       43.67283       41.09022
C        -32.38053       44.97595       41.32712
O        -32.44876       45.42576       42.46167
C        -31.27287       42.88923       42.38547
C        -30.36620       43.56470       43.38732
O        -29.97747       44.70829       43.23151
O        -29.98384       42.88829       44.48599
H        -29.72789       44.62585       40.84477
H        -32.26515       42.97372       40.51630
H        -30.76690       41.94921       42.07278
H        -32.21400       42.61331       42.90579
N        -32.96442       45.69070       40.32155
C        -33.18302       45.22427       38.96410
C        -32.43708       46.01795       37.92440
O        -31.84211       45.39476       37.06137
H        -33.37918       46.60443       40.56174
H        -34.27112       45.31798       38.75925
H        -32.94314       44.15187       38.83180
N        -32.43546       47.38135       37.90521
C        -31.84408       48.14391       36.80375
C        -30.54706       48.83063       37.18764
O        -30.21056       48.89770       38.35989
C        -32.87526       49.16633       36.27516
C        -33.30151       50.15482       37.33717
O        -32.39995       50.97657       37.90960
O        -34.46946       50.21221       37.68744
H        -32.88225       47.89079       38.68133
H        -31.58110       47.45517       35.97071
H        -33.77014       48.61348       35.91393
H        -32.45380       49.72971       35.41609
N        -29.75504       49.35304       36.20580
C        -28.53172       50.09999       36.45015
C        -27.32498       49.36520       35.91432
O        -27.30781       49.01382       34.74258
H        -30.03887       49.22281       35.22186
H        -28.39400       50.30347       37.53294
H        -28.61970       51.08013       35.93649
N        -26.26558       49.10793       36.73499
C        -25.07784       48.36060       36.33184
C        -23.83687       49.21662       36.47172
O        -23.78405       50.05125       37.36717
C        -24.94291       47.10537       37.21216
C        -26.18233       46.22027       37.07744
O        -23.80925       46.37858       36.81549
H        -26.30809       49.43856       37.71144
H        -25.15574       48.02822       35.27253
H        -24.83173       47.42472       38.27779
H        -23.59254       45.76120       37.56074
H        -26.33879       45.92094       36.02075
H        -26.03655       45.30681       37.67506
H        -27.08808       46.74655       37.44917
N        -22.76445       49.03055       35.64201
C        -21.55965       49.84917       35.76292
C        -21.87754       51.28638       35.33065
O        -21.09425       52.18256       35.59593
C        -20.34066       49.32579       34.91305
C        -20.19529       47.78195       34.81247
C        -19.01461       49.93030       35.43327
C        -20.10468       47.04021       36.14299
H        -22.82633       48.29054       34.93113
H        -21.26906       49.80444       36.83743
H        -20.47977       49.65716       33.85883
H        -19.29029       47.54733       34.20854
H        -21.04448       47.36124       34.23838
H        -18.15907       49.58852       34.81326
H        -19.01004       51.03537       35.39941
H        -18.82726       49.62460       36.48485
H        -19.21498       47.35808       36.72089
H        -21.02165       47.20410       36.74436
H        -20.01432       45.95212       35.93643
N        -22.98817       51.54446       34.57048
C        -23.29392       52.83948       33.97726
C        -23.21345       52.69081       32.46153
O        -23.02812       51.58485       31.97667
C        -24.69004       53.30143       34.45869
C        -24.70921       53.47951       35.98118
O        -25.03746       54.52103       33.85748
H        -23.63157       50.78234       34.32073
H        -22.53279       53.59395       34.27172
H        -25.42925       52.51570       34.17020
H        -26.02841       54.58320       33.88506
H        -25.72065       53.79385       36.31298
H        -24.45865       52.52936       36.49583
H        -23.97524       54.25697       36.28434
N        -23.26338       53.78965       31.65400
C        -23.05296       53.71360       30.21344
C        -21.71987       54.37430       29.91310
O        -20.82750       53.70392       29.40802
C        -24.25975       54.32289       29.44735
C        -24.11408       54.12778       27.93045
O        -24.40956       55.68613       29.74984
H        -23.36976       54.71871       32.08124
H        -22.98054       52.65217       29.88739
H        -25.17362       53.77901       29.77964
H        -25.22692       56.00700       29.28692
H        -23.21447       54.65288       27.54695
H        -24.03732       53.04610       27.68956
H        -25.00881       54.53056       27.40867
N        -21.50818       55.68181       30.22434
C        -20.25793       56.38874       30.00700
C        -19.87065       57.11269       31.28637
O        -20.65376       57.93673       31.74362
C        -20.48387       57.39460       28.86953
C        -19.24191       58.23274       28.54474
C        -19.58247       59.24785       27.45152
C        -18.39686       60.16613       27.14682
N        -18.76688       61.16130       26.14151
H        -22.28412       56.23008       30.62243
H        -19.45030       55.69010       29.69112
H        -21.31817       58.07425       29.15366
H        -20.79079       56.83518       27.95741
H        -18.41121       57.57078       28.21373
H        -18.91784       58.78567       29.45291
H        -20.43335       59.87465       27.79896
H        -19.88850       58.71135       26.52634
H        -17.53887       59.56187       26.77747
H        -18.08592       60.68927       28.07887
H        -19.56276       61.74384       26.49140
H        -17.94865       61.78467       25.95722
H        -19.04426       60.68729       25.25143
N        -18.67745       56.87965       31.90653
C        -18.25260       57.61247       33.10035
C        -18.17921       56.69918       34.32406
O        -18.93717       56.96653       35.24625
C        -16.97147       58.43608       32.82504
C        -16.59538       59.33006       34.01927
C        -15.42819       60.21789       33.69348
O        -15.56861       61.55704       33.73737
O        -14.34688       59.73440       33.39839
H        -18.05361       56.17319       31.49554
H        -19.02211       58.37944       33.34539
H        -17.17593       59.09316       31.95009
H        -16.10696       57.79914       32.56209
H        -16.33629       58.70318       34.89920
H        -17.46386       59.97120       34.28585
N        -17.35614       55.61762       34.47750
C        -16.38425       55.10750       33.53468
H        -15.38249       55.10691       34.01249
H        -16.65200       54.06338       33.26959
H        -16.31097       55.68306       32.60564
H        -17.42864       55.09196       35.36304
Ca       -27.79422       45.91166       42.08351
O        -27.20573       49.19755       40.72069
H        -28.12356       49.45612       40.45581
H        -26.62018       49.81251       40.21207
O        -29.32077       48.91441       43.28739
H        -30.18752       48.71249       43.72104
H        -29.52446       49.64958       42.65614
O        -29.80416       47.33244       40.76616
H        -30.75360       47.45909       40.52274
H        -29.37855       46.96151       39.95219
O        -26.39065       48.55121       44.28295
H        -26.81532       48.71192       45.16276
H        -26.10085       49.44811       43.97968
O        -24.85728       47.49368       41.67493
H        -24.38962       48.17400       41.12854
H        -24.38804       47.50826       42.54660
O        -28.23033       46.21383       45.44807
H        -27.46631       46.01707       46.04558
H        -28.67666       45.33925       45.33107

Ca 1.0



