%chk=apoCaM-CA-Ng.loop4.water5.frame673.chk
%nprocshared=20
%mem=10GB
%nosave
#b3lyp/svp scf=(tight,noincore,xqc) Test 
#IOP(5/87=12) Density=Current Pop=(MK,readradii) iop(6/33=2) iop(6/42=6)

apoCaM-CA-Ng.loop4.water5.frame673 

   -3  1 
C        -18.25144       45.70692      105.74665
C        -18.71332       46.01022      107.13631
O        -19.21324       47.09791      107.38505
H        -17.16683       45.47687      105.75169
H        -18.80868       44.83147      105.35357
H        -18.42957       46.56921      105.08284
N        -18.57629       45.06420      108.10285
C        -19.00203       45.22850      109.48405
C        -20.50740       45.45839      109.53053
O        -20.93484       46.50626      109.99889
C        -18.23850       46.37482      110.20264
C        -16.77376       46.47314      109.87983
O        -15.93407       45.42917      109.97625
O        -16.32831       47.54375      109.49659
H        -18.14874       44.16085      107.84518
H        -18.75817       44.28596      110.02457
H        -18.37931       46.24565      111.29827
H        -18.67112       47.36214      109.92915
N        -21.37948       44.52659      109.03996
C        -22.82371       44.77463      108.97980
C        -23.54720       43.97542      110.06095
O        -22.92340       43.08631      110.62490
C        -23.38678       44.51391      107.54840
C        -23.37601       43.00557      107.18144
C        -22.63461       45.36549      106.50886
C        -24.17808       42.68913      105.91751
H        -21.00780       43.62270      108.71199
H        -22.98897       45.83826      109.20854
H        -24.43779       44.84615      107.53297
H        -23.86290       42.42731      107.99501
H        -22.33562       42.63418      107.06920
H        -23.09238       45.27082      105.50397
H        -22.67781       46.43895      106.79068
H        -21.56964       45.05737      106.44019
H        -24.17947       41.59166      105.74780
H        -25.23161       43.02127      106.04468
H        -23.74520       43.17471      105.02151
N        -24.83361       44.21643      110.47284
C        -25.72811       45.28801      110.01900
C        -25.08584       46.64661      110.24549
O        -24.99986       47.43449      109.31319
C        -27.07112       45.19767      110.77537
C        -28.06793       46.21019      110.28184
O        -28.57286       47.12813      111.12728
O        -28.43381       46.19657      109.11690
H        -25.18840       43.59912      111.22136
H        -25.97060       45.15051      108.94815
H        -26.90064       45.33933      111.86489
H        -27.50876       44.18666      110.62280
N        -24.51555       46.93369      111.44679
C        -23.70669       48.11328      111.68493
C        -24.51323       49.37247      111.85649
O        -25.34418       49.41710      112.75256
H        -24.54720       46.22162      112.19207
H        -22.93749       48.21067      110.88783
H        -23.16195       47.97061      112.64289
N        -24.23995       50.47527      111.10123
C        -24.79943       51.79448      111.38646
C        -25.63052       52.37337      110.25071
O        -26.17645       53.45209      110.44247
C        -23.65179       52.73439      111.83582
C        -22.48671       52.82047      110.87978
O        -21.26878       52.39850      111.27069
O        -22.62275       53.28183      109.76205
H        -23.53279       50.39974      110.35366
H        -25.50369       51.73799      112.24524
H        -23.25546       52.33200      112.79356
H        -24.04434       53.75356      112.04071
N        -25.82653       51.72126      109.06760
C        -26.70251       52.23510      108.02116
C        -26.22896       53.51696      107.35899
O        -26.92710       53.98084      106.46995
H        -25.39607       50.79880      108.91211
H        -27.71757       52.39598      108.44654
H        -26.78869       51.46895      107.22044
N        -25.05970       54.13454      107.70417
C        -24.53672       55.33786      107.06721
C        -24.15335       55.08893      105.61539
O        -23.87549       56.05401      104.91583
C        -25.48634       56.54674      107.25149
C        -25.71526       56.85167      108.74190
C        -26.56183       58.08393      108.92975
N        -27.74556       58.01897      109.58285
O        -26.16763       59.15777      108.49908
H        -24.48300       53.73379      108.44260
H        -23.58538       55.62325      107.57080
H        -26.45989       56.37892      106.74646
H        -25.01290       57.43895      106.78442
H        -24.73771       57.02324      109.24342
H        -26.20287       55.97863      109.22509
H        -28.09512       57.12608      109.95979
H        -28.31567       58.86752      109.71548
N        -24.01096       53.81932      105.12142
C        -23.57300       53.53637      103.75810
C        -22.19589       52.89306      103.71651
O        -21.65042       52.80636      102.62538
C        -24.59841       52.63899      103.00954
C        -24.74035       51.24086      103.64702
C        -25.96894       53.31850      102.92800
H        -24.17732       53.01765      105.74301
H        -23.47221       54.49163      103.19710
H        -24.23375       52.49565      101.96780
H        -25.43583       50.61710      103.04757
H        -23.76158       50.71661      103.67344
H        -25.13926       51.29810      104.68086
H        -25.87759       54.30382      102.42478
H        -26.67116       52.68922      102.34102
H        -26.39548       53.46968      103.94063
N        -21.58519       52.38413      104.83044
C        -20.27077       51.75284      104.78451
C        -19.34039       52.45362      105.76416
O        -19.80156       53.27684      106.54291
C        -20.46167       50.23649      105.01808
C        -19.25150       49.39368      104.69338
N        -19.24303       48.61198      103.58554
O        -18.27971       49.40144      105.43244
H        -22.06772       52.39807      105.73909
H        -19.83590       51.87835      103.76930
H        -21.26749       49.92676      104.31670
H        -20.82862       50.01894      106.04441
H        -20.05223       48.58244      102.94798
H        -18.41710       48.04382      103.34771
N        -17.99361       52.25065      105.70802
C        -17.04840       53.00154      106.54188
C        -15.63005       52.83153      106.00709
O        -15.39579       51.91961      105.22579
C        -17.19603       52.59231      108.03930
C        -16.76139       53.66341      109.01909
C        -15.41407       53.86863      109.36048
C        -17.74379       54.48044      109.61272
C        -15.05783       54.89110      110.25044
C        -17.38735       55.49620      110.50006
C        -16.04521       55.71186      110.81763
O        -15.71972       56.70792      111.66627
H        -17.64990       51.63077      104.96550
H        -17.32208       54.07193      106.40929
H        -16.74199       51.60223      108.26325
H        -18.27591       52.43862      108.23256
H        -14.63845       53.24276      108.93965
H        -18.79233       54.34305      109.37725
H        -14.01521       55.04704      110.49681
H        -18.15806       56.12071      110.93513
H        -14.80330       56.90435      111.90568
N        -14.63758       53.70921      106.33043
C        -13.29745       53.59745      105.77377
C        -12.30354       53.32255      106.89346
O        -11.87954       54.27158      107.53798
C        -12.96880       54.87101      104.96601
C        -11.61587       54.78380      104.24344
C        -11.36225       56.01956      103.42820
O        -10.28884       56.79061      103.68617
O        -12.11946       56.32469      102.52008
H        -14.83981       54.50033      106.95597
H        -13.26216       52.77747      105.04176
H        -12.98145       55.75910      105.63624
H        -13.76688       55.00583      104.20191
H        -11.60740       53.90483      103.56357
H        -10.79976       54.66396      104.98755
N        -11.91246       52.05926      107.25495
C        -12.41766       50.81599      106.65962
C        -11.97042       50.66908      105.21449
O        -11.13016       51.43008      104.75138
C        -11.93754       49.58285      107.47083
C        -12.48900       49.56448      108.91037
C        -11.73838       48.56705      109.75645
O        -11.83106       47.23173      109.57994
O        -11.00219       48.98336      110.63680
H        -11.25075       51.99046      108.04401
H        -13.52729       50.84056      106.69138
H        -10.82486       49.62050      107.49670
H        -12.23796       48.63228      106.97837
H        -13.58394       49.37144      108.92251
H        -12.32583       50.56174      109.36894
N        -12.54109       49.72017      104.42409
C        -12.20581       49.58124      103.02401
H        -11.13011       49.33254      102.91107
H        -12.81411       48.77122      102.56844
H        -12.42666       50.52968      102.48741
H        -13.26326       49.09823      104.81828
Ca       -13.78674       46.10983      109.75992
O        -13.73124       43.65358      111.88368
H        -13.00724       43.26650      112.43739
H        -14.46581       42.99174      111.93632
O        -10.63555       45.37271      111.45052
H        -10.43672       44.73249      112.17836
H        -10.22846       46.22487      111.74806
O        -14.90343       46.25089      106.92918
H        -15.28139       47.16579      106.95380
H        -14.02789       46.35551      106.47992
O        -11.73152       43.40715      109.24300
H        -11.41053       43.36929      108.30708
H        -10.96064       43.09780      109.78196
O        -13.76659       46.96315      112.72117
H        -14.07161       47.66634      112.09404
H        -12.79238       46.89310      112.55942

Ca 1.0



