%chk=apoCaM-CA-Ng.loop3.water8.frame1150.chk
%nprocshared=20
%mem=10GB
%nosave
#b3lyp/svp scf=(tight,noincore,xqc) Test 
#IOP(5/87=12) Density=Current Pop=(MK,readradii) iop(6/33=2) iop(6/42=6)

apoCaM-CA-Ng.loop3.water8.frame1150 

   0  1 
C         53.20960       57.89731       74.45643
C         52.19167       56.95800       73.88455
O         52.50345       56.25202       72.94172
H         54.17326       57.81440       73.90830
H         52.84080       58.94086       74.37901
H         53.38534       57.64694       75.52373
N         50.94141       56.89924       74.41770
C         49.89389       55.99857       73.94234
C         48.68271       56.76300       73.42377
O         47.66865       56.12900       73.16450
C         49.48989       55.00969       75.06058
C         48.80840       55.65128       76.24188
O         49.39883       56.45368       76.94583
O         47.53904       55.31625       76.54271
H         50.72598       57.52928       75.20401
H         50.26332       55.36805       73.10379
H         50.38703       54.45216       75.40640
H         48.78973       54.26372       74.62260
N         48.72227       58.11346       73.20044
C         47.58751       58.90340       72.72746
C         47.00005       58.28231       71.47074
O         45.81319       57.97964       71.44841
C         46.52136       59.03033       73.84056
C         47.08354       59.63539       75.13309
C         45.97800       59.75217       76.18811
C         46.51808       60.32962       77.50078
N         45.44938       60.45011       78.49195
H         49.60567       58.62430       73.34050
H         47.95142       59.92672       72.48456
H         46.10311       58.02650       74.07480
H         45.69483       59.67655       73.46978
H         47.50433       60.64240       74.92044
H         47.89362       58.98318       75.52772
H         45.54925       58.74477       76.38630
H         45.17196       60.41322       75.80040
H         46.95892       61.33373       77.31289
H         47.31553       59.66281       77.89877
H         44.70496       61.09520       78.13975
H         45.03507       59.51051       78.69140
H         45.84480       60.84107       79.37713
N         47.80852       57.96417       70.42102
C         47.34343       57.13675       69.31237
C         47.92474       55.74283       69.46638
O         48.84361       55.55629       70.25478
C         47.60804       57.80146       67.95313
C         49.06100       58.08779       67.70858
O         49.43910       59.23646       67.54179
O         49.94955       57.08136       67.64525
H         48.81191       58.19585       70.47916
H         46.24304       56.99698       69.38536
H         47.04133       58.75849       67.92240
H         47.22596       57.15249       67.13632
N         47.32567       54.68055       68.85727
C         47.67010       53.30526       69.18535
C         47.41451       53.08347       70.66995
O         46.29802       53.34718       71.09391
H         46.53468       54.84558       68.21616
H         48.71487       53.10693       68.88033
H         47.01341       52.61760       68.60993
N         48.36797       52.67375       71.55892
C         49.70689       52.21612       71.20379
C         50.56384       52.08743       72.46408
O         50.14718       51.39092       73.37982
C         49.60578       50.82916       70.52663
C         50.95919       50.30165       70.11784
N         51.46833       49.18523       70.69038
O         51.60321       50.89101       69.26324
H         48.10134       52.66912       72.55690
H         50.17123       52.94428       70.51362
H         48.96228       50.86789       69.62420
H         49.12426       50.12488       71.24123
H         50.94624       48.67781       71.41980
H         52.39629       48.83226       70.41348
N         51.78710       52.67815       72.60098
C         52.42466       53.47275       71.55822
C         53.84451       53.87729       71.89950
O         54.34305       53.53727       72.96420
H         52.28859       52.50682       73.48584
H         51.81542       54.37721       71.35323
H         52.49260       52.86644       70.63270
N         54.57603       54.58588       70.99172
C         55.98695       54.90913       71.18189
C         56.21583       56.41806       71.12827
O         55.27011       57.15923       70.89549
C         56.77497       54.15426       70.08296
C         58.25276       54.03491       70.35156
C         59.19771       54.58599       69.47174
C         58.69718       53.33446       71.48650
C         60.56612       54.44619       69.73243
C         60.06156       53.19511       71.74333
C         61.00218       53.75277       70.86743
O         62.32301       53.62511       71.10483
H         54.13151       54.85173       70.09957
H         56.31826       54.54991       72.17822
H         56.56749       54.63028       69.09824
H         56.39892       53.10852       70.02613
H         58.87839       55.12524       68.58875
H         57.98609       52.88778       72.17038
H         61.28844       54.87846       69.05186
H         60.38442       52.65033       72.62167
H         62.66171       53.14968       71.87724
N         57.45554       56.94926       71.34841
C         57.74016       58.38928       71.27441
C         57.46959       58.90936       69.86090
O         57.28298       58.09640       68.96650
C         59.21712       58.65422       71.74457
C         60.25009       58.09327       70.72638
C         59.50192       60.13424       72.06189
C         61.69916       58.14791       71.20947
H         58.21394       56.30411       71.60656
H         57.04555       58.88726       71.98670
H         59.32737       58.11668       72.71322
H         60.17633       58.64794       69.76561
H         60.02439       57.03242       70.51875
H         60.47119       60.23711       72.59042
H         59.57547       60.75177       71.14716
H         58.72253       60.54056       72.74074
H         62.35753       57.69107       70.44018
H         62.03764       59.19262       71.36081
H         61.80968       57.57712       72.15522
N         57.46100       60.24390       69.57188
C         57.30557       60.73757       68.20725
C         56.49860       62.02213       68.13925
O         56.18500       62.61529       69.16083
C         58.70155       60.97240       67.60272
O         59.39198       61.94031       68.34626
H         57.63416       60.92511       70.32098
H         56.77914       59.97842       67.58738
H         58.60613       61.30623       66.54536
H         59.27003       60.01672       67.62167
H         60.23314       62.12378       67.85310
N         56.17600       62.52381       66.91336
C         55.57002       63.82233       66.65949
C         56.50852       64.93528       67.09102
O         56.06396       65.90719       67.68730
C         54.16243       63.93759       67.26797
H         56.42875       61.96995       66.08062
H         55.46572       63.91878       65.55594
H         53.51570       63.12105       66.88676
H         54.19271       63.88223       68.37597
H         53.70088       64.90793       66.98538
N         57.84745       64.83844       66.82216
C         58.82990       65.86520       67.14631
C         58.70423       66.29703       68.59762
O         58.43245       67.46250       68.85620
C         58.68722       67.03552       66.16365
H         58.20285       63.97918       66.37610
H         59.84956       65.44806       66.98594
H         57.68933       67.51385       66.24665
H         59.47372       67.79537       66.35967
H         58.81810       66.66493       65.12378
N         58.85868       65.38751       69.60135
C         58.62656       65.70911       71.00642
C         59.90712       65.62751       71.83140
O         59.86070       65.97938       73.00148
C         57.51591       64.75785       71.52400
C         56.97347       65.03390       72.94144
C         56.23664       66.34212       73.09056
O         56.08049       67.10111       72.14683
O         55.70968       66.66436       74.28664
H         59.11015       64.41760       69.35565
H         58.27563       66.75712       71.09220
H         57.91302       63.71865       71.49580
H         56.65113       64.80301       70.82527
H         57.79007       64.98046       73.68660
H         56.25343       64.22592       73.19269
N         61.09435       65.21345       71.29771
C         62.32881       65.16129       72.05730
H         63.08693       65.80847       71.56896
H         62.20281       65.50794       73.10489
H         62.70443       64.11741       72.07897
H         61.15078       64.91859       70.31353
Ca        52.09693       57.54280       67.14455
O         54.13837       58.83704       65.16580
H         53.56323       59.63825       65.25160
H         55.06223       59.19289       65.16889
O         52.71549       60.54790       68.00003
H         52.33277       60.85865       67.14147
H         51.93966       60.18671       68.49750
O         52.15423       57.99534       70.21899
H         51.19470       57.78100       70.10826
H         52.57805       57.12330       70.41547
O         53.77903       55.27021       65.71543
H         54.07608       54.34417       65.90079
H         53.91321       55.38683       64.74160
O         52.07171       54.69994       68.35818
H         51.31165       54.97437       68.92967
H         51.76609       53.86619       67.92118
O         54.91034       57.27754       67.76567
H         54.58189       56.54362       68.34235
H         55.59330       56.85248       67.18899
O         50.53236       55.15159       65.51708
H         50.59714       54.22154       65.18505
H         49.56039       55.33885       65.54601
O         50.75780       58.34414       64.44990
H         50.63215       58.06091       63.50985
H         49.92048       58.07251       64.90246

Ca 1.0



