%chk=apoCaM-CA-Ng.loop2.water3.frame575.chk
%nprocshared=20
%mem=10GB
%nosave
#b3lyp/svp scf=(tight,noincore,xqc) Test 
#IOP(5/87=12) Density=Current Pop=(MK,readradii) iop(6/33=2) iop(6/42=6)

apoCaM-CA-Ng.loop2.water3.frame575 

   -2  1 
C         68.68822        4.32314       82.50938
C         68.01206        4.62832       83.81202
O         68.61582        4.43819       84.85864
H         69.71861        3.94388       82.67962
H         68.10944        3.54835       81.96378
H         68.74189        5.24328       81.89107
N         66.73466        5.10072       83.82098
C         66.01186        5.39054       85.05247
C         66.70301        6.49639       85.82897
O         66.78734        7.61240       85.33477
C         64.55452        5.79144       84.73637
C         63.76448        6.08270       85.98376
O         63.60295        5.12998       86.92175
O         63.26606        7.18469       86.15085
H         66.25712        5.23186       82.91503
H         65.98085        4.45916       85.66131
H         64.05642        4.95999       84.19230
H         64.54956        6.68738       84.07569
N         67.20180        6.24950       87.07359
C         67.79573        7.28671       87.91076
C         69.04044        7.89191       87.26667
O         69.65374        7.22593       86.44609
C         68.16793        6.69621       89.27750
H         67.11559        5.29427       87.45405
H         67.01591        8.05290       88.06615
H         67.26518        6.26627       89.76030
H         68.92433        5.89175       89.15216
H         68.58786        7.45828       89.96055
N         69.52318        9.13126       87.59544
C         68.86556       10.07626       88.49778
C         67.52300       10.55012       87.93912
O         67.18048       10.20522       86.81325
C         69.78762       11.29081       88.78026
C         70.07811       12.14102       87.56697
O         69.63064       11.78332       86.34561
O         70.67207       13.19860       87.70408
H         70.41635        9.41428       87.16182
H         68.69057        9.58060       89.47187
H         70.74439       10.94543       89.22827
H         69.28999       11.93862       89.53361
N         66.71215       11.36227       88.67091
C         65.43087       11.84481       88.17829
C         64.40425       10.73807       88.03855
O         64.70273        9.60010       88.35968
H         67.01720       11.67673       89.60475
H         65.58488       12.33532       87.19867
H         65.02564       12.58784       88.89825
N         63.13770       10.98296       87.58682
C         62.63309       12.27949       87.15743
C         62.15642       12.22581       85.70388
O         61.49747       13.15069       85.26703
C         61.53160       12.72551       88.14439
C         61.08574       14.15336       87.91941
N         59.78500       14.45011       87.69584
O         61.91104       15.05528       87.95542
H         62.47854       10.18692       87.55376
H         63.41886       13.06099       87.20485
H         61.95709       12.68641       89.17138
H         60.67255       12.02209       88.10116
H         59.06913       13.71007       87.67551
H         59.49088       15.42799       87.55268
N         62.53142       11.20361       84.87040
C         62.19397       11.15182       83.45374
C         62.67107       12.39175       82.72947
O         61.86661       13.02195       82.05553
H         63.12649       10.44448       85.22478
H         61.09486       11.03331       83.32754
H         62.68618       10.26061       83.00605
N         63.95698       12.82904       82.86346
C         64.43028       14.11600       82.34988
C         65.92246       14.06603       82.01863
O         66.73755       13.72596       82.86505
C         64.13727       15.26577       83.34292
C         62.66319       15.69729       83.32516
O         64.52414       14.88720       84.63582
H         64.58430       12.29194       83.48375
H         63.89508       14.36105       81.40588
H         64.72298       16.15450       83.01370
H         64.44911       15.69357       85.20912
H         62.51370       16.56160       84.00452
H         62.37449       16.01339       82.29925
H         61.98624       14.89300       83.65124
N         66.32496       14.40765       80.76307
C         67.69222       14.33971       80.24528
C         68.61542       15.39930       80.85933
O         68.33034       16.58050       80.72218
C         67.64597       14.51915       78.68508
C         69.06081       14.58315       78.04753
C         66.82465       13.37334       78.04443
C         69.04020       14.90839       76.55136
H         65.58467       14.69703       80.10721
H         68.09348       13.32782       80.44335
H         67.14037       15.48842       78.47171
H         69.59959       13.62571       78.21115
H         69.64047       15.40255       78.52037
H         67.32843       12.39774       78.21374
H         65.79935       13.30304       78.45689
H         66.69226       13.52849       76.95672
H         68.51337       15.87114       76.37745
H         70.07867       15.00672       76.17644
H         68.55417       14.10777       75.96109
N         69.80632       15.03600       81.43436
C         70.86997       15.97090       81.80441
C         72.13549       15.75838       80.96493
O         73.09268       16.48484       81.20091
C         71.21263       15.87051       83.30621
C         70.02889       16.27674       84.12664
O         70.03615       17.32727       84.74799
O         68.93531       15.50225       84.14060
H         70.01205       14.04340       81.56593
H         70.55042       17.01886       81.60891
H         72.04014       16.58270       83.52310
H         71.55532       14.85016       83.58606
N         72.20958       14.85846       79.93319
C         73.37104       14.75962       79.04908
C         73.80374       13.29980       78.86851
O         73.78332       12.80712       77.74734
C         73.00261       15.46562       77.72261
C         74.16055       15.66179       76.76851
C         74.10094       15.14611       75.46192
C         75.29322       16.40140       77.15943
C         75.15360       15.36571       74.56662
C         76.34471       16.61352       76.26255
C         76.27437       16.09791       74.96668
H         71.38719       14.29445       79.68756
H         74.22785       15.31919       79.47694
H         72.62257       16.48236       77.96539
H         72.17433       14.90873       77.23635
H         73.23624       14.58497       75.13074
H         75.36326       16.82320       78.15360
H         75.09817       14.97340       73.55946
H         77.21146       17.18473       76.57030
H         77.08614       16.27030       74.27144
N         74.23316       12.53857       79.92215
C         74.71025       11.15930       79.83041
C         73.75927       10.19683       79.13745
O         74.21387        9.39023       78.34009
C         74.88313       10.74755       81.29743
C         75.31152       12.04930       81.93003
C         74.34674       13.03457       81.28053
H         75.69941       11.15712       79.31799
H         73.89459       10.49063       81.74330
H         75.57560        9.89186       81.45048
H         75.31473       12.06672       83.03990
H         76.34142       12.27444       81.56573
H         73.33995       13.00908       81.75354
H         74.79090       14.04935       81.34878
N         72.42143       10.23829       79.39775
C         71.44451        9.31481       78.81611
C         71.57461        9.27233       77.30792
O         71.71594        8.18898       76.75734
C         69.95564        9.62666       79.15974
C         69.61805        9.79564       80.65567
C         69.85211       11.19215       81.15970
O         69.60647       11.49458       82.44604
O         70.19509       12.07692       80.39501
H         72.11920       10.96621       80.04136
H         71.65647        8.30164       79.22565
H         69.38271        8.74399       78.79736
H         69.56261       10.50159       78.59458
H         70.17172        9.04405       81.25736
H         68.52962        9.62093       80.79773
N         71.57385       10.42599       76.58274
C         71.72049       10.46217       75.14214
H         72.66504       10.98511       74.88229
H         71.74762        9.44665       74.69344
H         70.86755       11.01712       74.70054
H         71.50041       11.32905       77.07572
Ca        69.16363       13.37891       84.83697
O         67.24652       10.32203       83.66957
H         66.37269       10.21338       83.21750
H         67.72215        9.47020       83.49953
O         70.58469        9.79794       84.44743
H         70.34706        8.87778       84.17144
H         71.55421        9.76207       84.64305
O         67.10877       14.21226       86.38083
H         67.56603       15.01580       86.73114
H         66.14839       14.43080       86.43075

Ca 1.0



