%chk=apoCaM-CA-Ng.loop1.water3.frame1335.chk
%nprocshared=20
%mem=10GB
%nosave
#b3lyp/svp scf=(tight,noincore,xqc) Test 
#IOP(5/87=12) Density=Current Pop=(MK,readradii) iop(6/33=2) iop(6/42=6)

apoCaM-CA-Ng.loop1.water3.frame1335 

   0  1 
C         61.14619       52.46988       19.64729
C         61.64824       53.64323       20.42890
O         61.11272       54.73275       20.27776
H         60.31919       52.76936       18.96856
H         61.97547       52.05795       19.03285
H         60.78354       51.69072       20.34723
N         62.71315       53.48936       21.26891
C         63.32306       54.59104       22.01235
C         64.38408       55.31608       21.17957
O         65.43965       55.65684       21.69599
C         63.83625       54.12792       23.40374
C         64.93509       53.08778       23.35631
O         64.72463       51.97027       22.91306
O         66.15122       53.37224       23.85828
H         63.11424       52.54778       21.33849
H         62.53349       55.33912       22.21461
H         62.99031       53.71613       23.99443
H         64.22038       55.01829       23.94850
N         64.14527       55.60486       19.86882
C         65.05249       56.33661       18.99674
C         65.23915       57.75911       19.50631
O         66.39044       58.12828       19.69119
C         64.57670       56.25141       17.52318
C         64.65596       54.78781       17.03048
C         64.07319       54.60479       15.62745
C         64.16561       53.13042       15.20069
N         63.57670       52.92473       13.87894
H         63.27128       55.28260       19.44817
H         66.05234       55.84294       19.00753
H         65.23165       56.87168       16.87310
H         63.53934       56.62551       17.42055
H         64.08947       54.11986       17.71293
H         65.72064       54.46161       17.03694
H         64.62601       55.24037       14.90263
H         63.00478       54.91306       15.63830
H         63.62848       52.49187       15.93856
H         65.23306       52.81609       15.18126
H         64.06625       53.51723       13.17011
H         63.68144       51.91901       13.61182
H         62.55864       53.16383       13.90023
N         64.22949       58.61559       19.85743
C         62.78616       58.38665       19.75729
C         62.15164       58.11402       21.10497
O         62.81440       58.20592       22.12654
C         62.11116       59.58287       19.05738
C         62.60222       60.94488       19.51876
O         62.40503       61.49448       20.74365
O         63.25447       61.59292       18.71807
H         64.52919       59.50349       20.28815
H         62.57070       57.47859       19.16850
H         61.00944       59.50991       19.10294
H         62.37995       59.50399       17.98033
N         60.86251       57.66019       21.15273
C         60.21071       57.22490       22.37877
C         59.62250       58.36318       23.15702
O         59.66804       59.48639       22.69698
H         60.36164       57.49986       20.26508
H         60.92393       56.65650       23.00742
H         59.36535       56.55206       22.12264
N         59.05979       58.13272       24.37632
C         58.46111       59.17594       25.21394
C         57.11607       58.69729       25.77488
O         56.81115       57.52298       25.61822
C         59.49871       59.52810       26.31063
C         60.68895       60.14108       25.62528
O         60.50142       61.24196       24.86455
O         61.77040       59.57561       25.63442
H         59.13276       57.17870       24.76219
H         58.25766       60.08100       24.60244
H         59.78668       58.60425       26.86217
H         59.13769       60.25170       27.05393
N         56.22469       59.50409       26.43458
C         56.35500       60.93934       26.63268
C         56.21924       61.71978       25.34692
O         55.74562       61.18675       24.35462
H         55.37334       59.06405       26.81731
H         57.29840       61.17847       27.14257
H         55.55363       61.30249       27.31122
N         56.64453       63.01284       25.30564
C         56.60115       63.85728       24.11072
C         57.32488       63.17504       22.97130
O         58.44248       62.72154       23.16772
C         57.24455       65.23827       24.40470
C         56.41185       66.05133       25.40951
O         57.42377       65.97611       23.21800
H         57.07013       63.39308       26.16484
H         55.54674       64.03074       23.80339
H         58.25222       65.07686       24.84519
H         56.54014       66.31447       22.92036
H         56.90205       67.02868       25.59915
H         55.39552       66.23726       24.99924
H         56.30555       65.51943       26.37600
N         56.72985       63.07011       21.74361
C         57.32572       62.38069       20.60735
C         58.66394       63.02476       20.26888
O         59.70204       62.54449       20.70127
C         57.39303       60.84832       20.87640
C         55.98128       60.26131       21.13350
C         58.06506       60.09900       19.70754
C         56.02619       58.87731       21.79080
H         55.80408       63.50010       21.59942
H         56.66255       62.50167       19.72101
H         57.98176       60.71892       21.79126
H         55.40931       60.22279       20.18055
H         55.41645       60.90893       21.83275
H         57.48966       60.24487       18.76876
H         59.08749       60.47397       19.53993
H         58.15340       59.01297       19.90739
H         56.52076       58.95150       22.78299
H         54.99140       58.50806       21.94812
H         56.56773       58.13156       21.17769
N         58.69971       64.09473       19.43015
C         59.93740       64.69202       18.94492
C         59.96276       66.20673       19.09644
O         60.81925       66.81354       18.47548
C         60.17444       64.24468       17.47718
C         59.07590       64.69283       16.51257
O         60.26224       62.84520       17.41838
H         57.80874       64.44472       19.04711
H         60.82009       64.31456       19.50808
H         61.13437       64.67931       17.11047
H         61.09365       62.59372       17.89422
H         58.97643       65.79742       16.51162
H         59.33587       64.36015       15.48526
H         58.10264       64.23378       16.78282
N         59.07758       66.88548       19.88978
C         59.09921       68.34160       20.08106
C         60.34318       68.71065       20.89722
O         60.26990       68.76564       22.11692
C         57.77289       68.78623       20.75954
C         57.64341       70.31332       20.82597
O         56.69681       68.27679       20.00982
H         58.36010       66.34481       20.39451
H         59.11696       68.83860       19.08505
H         57.73710       68.35691       21.78716
H         55.86592       68.45549       20.52274
H         56.69479       70.58258       21.33945
H         58.48459       70.76833       21.38559
H         57.61301       70.73588       19.79835
N         61.55487       68.81126       20.27574
C         62.86301       68.79843       20.92902
C         63.10794       67.47551       21.63304
O         62.16490       66.79635       22.00840
C         63.13645       69.98052       21.86692
C         62.96108       71.32750       21.16188
C         63.36192       72.46938       22.10004
C         63.07163       73.83405       21.46887
N         63.44005       74.91422       22.38282
H         61.57602       68.82012       19.24774
H         63.61467       68.85294       20.10763
H         64.18755       69.89611       22.22566
H         62.46762       69.93605       22.75249
H         61.89503       71.43737       20.86681
H         63.59392       71.36901       20.24719
H         64.44757       72.38764       22.33398
H         62.78620       72.38646       23.04708
H         61.98453       73.90465       21.24108
H         63.63943       73.94152       20.51795
H         63.20614       75.83195       21.94065
H         62.90563       74.82484       23.27788
H         64.46646       74.88233       22.58133
N         64.37924       67.00801       21.76474
C         64.69387       65.68666       22.30030
C         63.95226       64.61603       21.50647
O         63.21481       63.87139       22.13355
C         66.21691       65.44801       22.31853
C         66.92806       66.41574       23.27947
C         68.41768       66.31269       23.14011
O         68.95070       66.57800       22.07356
O         69.17675       65.96166       24.19419
H         65.14625       67.59757       21.40845
H         64.34532       65.62434       23.35780
H         66.62374       65.58988       21.30325
H         66.43605       64.40563       22.64320
H         66.61856       66.18761       24.32326
H         66.65255       67.46734       23.06169
N         63.99894       64.48183       20.14746
C         64.81339       65.25971       19.23928
H         65.88427       65.02994       19.38735
H         64.57168       64.97655       18.19280
H         64.61522       66.34320       19.34454
H         63.37986       63.78334       19.71809
Ca        61.51206       61.36437       22.83303
O         60.44545       64.54303       23.18758
H         60.14801       65.44196       23.47221
H         60.83936       64.68555       22.29275
O         62.70244       63.30110       25.16224
H         62.99449       64.20400       25.44363
H         63.06713       62.69297       25.85342
O         63.96621       60.79155       23.79089
H         63.94220       59.81436       23.64473
H         64.80006       60.95170       24.29413

Ca 1.0



