%chk=apoCaM-CA-Ng.loop4.water5.frame619.chk
%nprocshared=20
%mem=10GB
%nosave
#b3lyp/svp scf=(tight,noincore,xqc) Test 
#IOP(5/87=12) Density=Current Pop=(MK,readradii) iop(6/33=2) iop(6/42=6)

apoCaM-CA-Ng.loop4.water5.frame619 

   -3  1 
C         99.37472      121.36989       76.94541
C        100.70908      121.36293       76.26503
O        100.82284      121.95015       75.19871
H         98.61692      120.91134       76.27681
H         99.40281      120.80084       77.89781
H         99.08123      122.41787       77.16670
N        101.77770      120.73256       76.83598
C        103.11192      120.70522       76.24873
C        103.60140      122.12818       76.07082
O        103.87170      122.54440       74.95106
C        103.12436      119.89371       74.93059
C        102.63536      118.48858       75.14874
O        103.27166      117.67734       76.01524
O        101.65954      118.07641       74.54192
H        101.65258      120.26684       77.74751
H        103.80499      120.19258       76.95378
H        104.16393      119.84554       74.53878
H        102.49435      120.38781       74.16077
N        103.72147      122.94159       77.16085
C        104.08654      124.34990       77.05809
C        105.57556      124.52986       77.35299
O        106.06198      123.86545       78.25722
C        103.18511      125.27089       77.94103
C        103.41135      125.06259       79.46284
C        101.70405      125.09045       77.55974
C        102.66079      126.06984       80.33713
H        103.54823      122.54043       78.09407
H        103.87980      124.64843       76.01777
H        103.47051      126.32034       77.70067
H        104.48711      125.20465       79.69204
H        103.11945      124.03612       79.76723
H        101.35004      124.06768       77.80771
H        101.05833      125.82815       78.07703
H        101.57011      125.25606       76.47551
H        102.95180      127.10718       80.06548
H        101.56268      125.95632       80.24243
H        102.92453      125.89801       81.40204
N        106.40295      125.35740       76.63983
C        105.97742      126.26294       75.57678
C        106.46486      125.82882       74.20891
O        105.90889      126.31859       73.24315
C        106.37371      127.72554       75.88550
C        107.85661      128.01151       75.92733
O        108.68574      127.14152       75.71337
O        108.27349      129.26352       76.19346
H        107.40325      125.34798       76.88844
H        104.88268      126.29891       75.51428
H        105.93406      128.00897       76.86637
H        105.92899      128.38836       75.11024
N        107.46344      124.91772       74.01842
C        107.92536      124.55638       72.68671
C        108.57493      125.73876       71.99073
O        109.60023      126.21136       72.45992
H        107.91571      124.46445       74.82423
H        107.06254      124.16731       72.10321
H        108.67855      123.74254       72.75535
N        108.00938      126.27798       70.87254
C        108.55831      127.41992       70.13674
C        107.70688      128.67732       70.31366
O        107.94793      129.65948       69.62576
C        108.77426      127.05375       68.64346
C        107.55643      126.65810       67.83952
O        106.33344      126.56840       68.38917
O        107.68860      126.39749       66.65473
H        107.11704      125.87755       70.55204
H        109.56434      127.69106       70.52590
H        109.49744      126.21188       68.59046
H        109.24055      127.92766       68.13751
N        106.74642      128.74707       71.27960
C        105.91368      129.90789       71.53687
C        104.85660      130.13298       70.47833
O        104.12326      131.10193       70.60521
H        106.62954      127.96122       71.91129
H        106.56000      130.80452       71.65368
H        105.37120      129.75386       72.49619
N        104.69959      129.27883       69.42169
C        103.74656      129.44948       68.33205
C        102.29381      129.27628       68.75201
O        101.43658      129.45348       67.89887
C        104.00695      130.78785       67.58488
C        105.45109      130.88015       67.04222
C        105.77674      129.87388       65.95724
N        107.03954      129.78048       65.48390
O        104.91140      129.14518       65.49417
H        105.31047      128.46300       69.34953
H        103.90814      128.62597       67.60819
H        103.83291      131.64270       68.27000
H        103.29854      130.90764       66.73731
H        106.15948      130.74694       67.88639
H        105.62165      131.89497       66.62337
H        107.78907      130.37766       65.86160
H        107.27061      129.09701       64.74735
N        101.93255      128.87699       70.00996
C        100.53715      128.69473       70.41206
C        100.23049      127.26842       70.86976
O         99.08558      127.03700       71.24112
C        100.16192      129.72528       71.51864
C        100.93965      129.52162       72.82933
C        100.35344      131.16267       71.01486
H        102.65809      128.69935       70.71590
H         99.85773      128.89055       69.55440
H         99.08055      129.60115       71.75146
H        100.74255      128.51072       73.23462
H        102.03220      129.65235       72.68598
H        100.60094      130.25538       73.59110
H        100.01489      131.88713       71.78564
H        101.42053      131.36680       70.78729
H         99.75369      131.32908       70.09512
N        101.16615      126.26998       70.90188
C        100.89221      124.95000       71.47514
C        101.08610      123.82424       70.47837
O        101.48783      124.06319       69.34623
C        101.81426      124.74055       72.69059
C        101.56710      125.79995       73.72956
N        102.54309      126.66971       74.07221
O        100.46888      125.87942       74.26006
H        102.12563      126.45314       70.57035
H         99.83654      124.88052       71.81987
H        102.87276      124.76868       72.34838
H        101.64115      123.75248       73.16564
H        103.46243      126.62950       73.61512
H        102.37580      127.39555       74.78392
N        100.79034      122.54763       70.85930
C        100.93203      121.36961       70.01252
C         99.56053      120.73663       69.79673
O         98.62760      121.08351       70.51175
C        101.92121      120.41498       70.71955
C        102.18401      119.11793       70.00015
C        101.84694      117.90783       70.61959
C        102.77897      119.09446       68.72999
C        102.07296      116.68955       69.97706
C        103.01358      117.87363       68.08634
C        102.65627      116.66853       68.70371
O        102.88135      115.50060       68.06889
H        100.43005      122.39459       71.81557
H        101.33144      121.66410       69.01796
H        101.51386      120.20146       71.73426
H        102.89256      120.93618       70.86287
H        101.41185      117.92007       71.60434
H        103.06153      120.01799       68.24201
H        101.79876      115.76530       70.47006
H        103.47332      117.86432       67.10685
H        102.64288      114.64827       68.46142
N         99.34466      119.85453       68.77532
C         98.03250      119.29088       68.47580
C         98.10214      117.76252       68.47825
O         98.36160      117.19209       67.42711
C         97.52425      119.84374       67.12376
C         96.08757      119.38432       66.81007
C         95.61487      119.94460       65.49963
O         95.53419      121.27720       65.32187
O         95.28896      119.19473       64.59302
H        100.12562      119.61552       68.14614
H         97.28860      119.64326       69.20832
H         98.20933      119.53376       66.30435
H         97.53080      120.95557       67.17544
H         95.39832      119.72818       67.61168
H         96.04349      118.27487       66.76685
N         97.92162      116.99956       69.59884
C         97.67961      117.53564       70.93444
C         96.35131      118.25401       71.05114
O         95.51307      118.15988       70.16417
C         97.73706      116.42021       72.00631
C         99.14609      115.82812       72.10841
C         99.37077      114.97934       73.31803
O         98.46025      114.68724       74.07753
O        100.64351      114.71359       73.65843
H         98.01444      115.97728       69.49068
H         98.48350      118.27458       71.14978
H         96.98671      115.62436       71.80244
H         97.50176      116.87593       72.99307
H         99.81939      116.68464       72.26026
H         99.44756      115.28355       71.18977
N         96.12186      119.04185       72.13771
C         94.90739      119.80501       72.30235
H         94.03448      119.12247       72.35409
H         94.96136      120.39454       73.24282
H         94.78748      120.50922       71.45158
H         96.85078      119.12991       72.86280
Ca       101.17796      114.74053       75.84158
O        102.88254      112.45558       75.61513
H        102.66645      112.76557       74.69942
H        102.02097      112.12282       75.97344
O         99.96177      114.05156       78.28636
H         99.78502      114.46592       79.16699
H        100.74218      113.46062       78.43714
O         98.64883      116.79967       76.07634
H         98.57414      117.37125       76.88035
H         98.43486      115.88926       76.40196
O        103.60133      114.96541       77.85805
H        103.40911      114.03751       78.14535
H        104.58956      115.02605       77.85821
O        103.92720      115.38350       74.05408
H        103.89724      115.11856       73.10062
H        104.69168      116.00997       74.11435

Ca 1.0



