%chk=apoCaM-CA-Ng.loop2.water4.frame35.chk
%nprocshared=20
%mem=10GB
%nosave
#b3lyp/svp scf=(tight,noincore,xqc) Test 
#IOP(5/87=12) Density=Current Pop=(MK,readradii) iop(6/33=2) iop(6/42=6)

apoCaM-CA-Ng.loop2.water4.frame35 

   -2  1 
C         63.72925       51.32825       47.90472
C         64.36311       50.18550       48.64277
O         65.58164       50.08677       48.64174
H         62.62233       51.30352       47.99203
H         64.09578       52.29010       48.31977
H         63.99766       51.26845       46.82903
N         63.59319       49.28019       49.30875
C         64.14985       48.14095       50.02696
C         64.84098       47.19177       49.06346
O         65.99486       46.86378       49.29587
C         63.04459       47.40415       50.81013
C         63.61903       46.31828       51.68077
O         64.51536       46.62526       52.63935
O         63.27067       45.15851       51.53088
H         62.56992       49.41470       49.31359
H         64.87862       48.51877       50.78082
H         62.29279       46.98125       50.10830
H         62.52804       48.12790       51.47739
N         64.19308       46.72444       47.95000
C         64.76633       45.77668       46.99247
C         66.02765       46.28255       46.29462
O         66.64986       45.49250       45.59741
C         65.03404       44.43418       47.69333
H         63.22909       47.04461       47.77308
H         64.01532       45.57004       46.19830
H         65.80957       44.52445       48.48075
H         64.09592       44.05887       48.15441
H         65.37786       43.67602       46.95707
N         66.48332       47.56369       46.44150
C         67.76935       48.03712       45.94327
C         68.85172       47.20499       46.60500
O         69.64305       46.55416       45.93698
C         67.82079       48.04011       44.39829
C         69.06859       48.70746       43.88602
O         69.85586       48.09158       43.18558
O         69.31254       49.99758       44.18322
H         65.93220       48.23756       46.98418
H         67.89471       49.09347       46.27680
H         66.95256       48.61255       44.00820
H         67.76109       47.00544       44.00198
N         68.90164       47.17481       47.96298
C         69.81078       46.34360       48.72381
C         70.92872       47.18573       49.25648
O         72.08256       46.87103       48.99956
H         68.25015       47.77328       48.49282
H         70.22428       45.51679       48.10641
H         69.24596       45.87686       49.56107
N         70.65523       48.30161       49.98348
C         71.67966       49.18780       50.51397
C         71.55771       49.25960       52.02585
O         70.69669       48.59635       52.59187
C         71.56282       50.55836       49.81671
C         71.82324       50.42235       48.33104
N         73.02803       50.00170       47.87425
O         70.93918       50.69307       47.53321
H         69.66935       48.55539       50.15516
H         72.69611       48.78720       50.31117
H         72.30281       51.27770       50.22413
H         70.54531       50.97070       49.99005
H         73.79363       49.77559       48.52523
H         73.20197       49.90486       46.86301
N         72.43798       49.99977       52.75450
C         72.50507       49.96011       54.20660
C         72.23906       51.30764       54.82312
O         72.88680       52.27642       54.44932
H         73.14465       50.56693       52.26168
H         73.52967       49.63876       54.48630
H         71.80279       49.21060       54.63108
N         71.32365       51.42929       55.82800
C         71.03926       52.69276       56.49610
C         70.43739       53.66290       55.50836
O         70.99370       54.73571       55.31746
C         70.11388       52.47901       57.72596
C         69.83944       53.79435       58.46803
O         68.89644       51.89231       57.34299
H         70.83132       50.58131       56.14949
H         71.99417       53.11118       56.88993
H         70.65455       51.79102       58.41772
H         68.52014       51.44983       58.14778
H         69.28878       54.50865       57.81891
H         69.22091       53.59724       59.36871
H         70.79364       54.26179       58.79121
N         69.29895       53.33806       54.83376
C         68.68703       54.23818       53.87086
C         69.30994       54.05219       52.51157
O         69.99279       53.06061       52.28737
C         67.12883       54.13542       53.84167
C         66.51333       52.89785       53.11537
C         66.55064       54.30220       55.25710
C         66.78690       51.50945       53.69926
H         68.89282       52.41226       54.98986
H         68.92497       55.27650       54.19495
H         66.77202       55.00641       53.24729
H         66.83919       52.89079       52.05308
H         65.40924       53.03477       53.11238
H         65.44111       54.32971       55.22138
H         66.85985       53.46904       55.92177
H         66.90662       55.25425       55.70474
H         66.19808       50.75719       53.13181
H         67.84910       51.22269       53.58066
H         66.47685       51.45041       54.76323
N         69.13905       55.00267       51.55464
C         69.65838       54.85159       50.20616
C         69.57710       56.19734       49.49266
O         68.83483       56.33481       48.53174
C         68.85343       53.73152       49.50793
C         69.33151       53.40528       48.13243
O         68.64271       52.50835       47.41668
O         70.29339       53.96755       47.63497
H         68.62257       55.86205       51.80141
H         70.73273       54.56188       50.24449
H         67.78801       54.04617       49.44408
H         68.89106       52.79067       50.09216
N         70.35947       57.22901       49.93936
C         70.38052       58.61510       49.45629
C         69.18085       58.99294       48.58640
O         68.07770       58.93942       49.10766
C         70.37744       59.56165       50.68352
C         70.26579       61.01814       50.28270
C         71.27982       61.65043       49.54396
C         69.10972       61.74421       50.62102
C         71.13112       62.98257       49.14194
C         68.96485       63.07265       50.21665
C         69.97340       63.69149       49.47550
H         71.03022       57.00665       50.69191
H         71.34080       58.76220       48.92797
H         71.29039       59.40649       51.29857
H         69.50468       59.28779       51.31734
H         72.17837       61.11179       49.27201
H         68.31044       61.27684       51.18294
H         71.91017       63.46464       48.56607
H         68.06600       63.61861       50.47270
H         69.85562       64.71957       49.15885
N         69.29198       59.46500       47.30490
C         68.16235       59.96992       46.53580
C         67.02464       58.97979       46.34411
O         65.88942       59.37213       46.57821
C         68.78390       60.41244       45.20949
C         70.15150       60.87213       45.66964
C         70.53739       59.73624       46.61064
H         67.77821       60.87807       47.05739
H         68.94066       59.53495       44.54367
H         68.18860       61.17980       44.66790
H         70.88387       61.07964       44.86202
H         70.02188       61.80205       46.27578
H         70.83631       58.83173       46.03633
H         71.36453       60.09554       47.25030
N         67.23065       57.68646       45.93732
C         66.11275       56.75849       45.71299
C         65.26104       56.50232       46.96261
O         64.20973       55.89338       46.82158
C         66.55402       55.40286       45.08429
C         67.23880       55.59566       43.71640
C         67.27976       54.35619       42.84308
O         67.91090       53.21781       43.19490
O         66.72553       54.38997       41.75608
H         68.19613       57.37518       45.75734
H         65.43884       57.24745       44.97491
H         65.62832       54.80992       44.91583
H         67.20775       54.82867       45.77637
H         68.26224       55.99598       43.85699
H         66.65429       56.35231       43.14968
N         65.61864       56.95372       48.19850
C         64.79478       56.82565       49.38349
H         63.82981       56.31832       49.17923
H         65.34653       56.25757       50.16070
H         64.57335       57.84142       49.77866
H         66.51123       57.42890       48.32300
Ca        68.73240       52.73372       45.20860
O         72.23619       50.62944       44.31402
H         72.11504       49.65470       44.43783
H         72.97441       50.70734       43.65906
O         70.71421       55.61870       45.30302
H         70.62636       56.35491       44.64805
H         69.83055       55.57926       45.74648
O         71.51458       53.45952       43.13175
H         71.13822       52.80473       42.49142
H         71.31431       54.34222       42.73044
O         73.02883       53.00779       46.24477
H         73.16797       53.01470       47.22509
H         73.76588       52.44712       45.89424

Ca 1.0



