%chk=apoCaM-CA-Ng.loop2.water5.frame1239.chk
%nprocshared=20
%mem=10GB
%nosave
#b3lyp/svp scf=(tight,noincore,xqc) Test 
#IOP(5/87=12) Density=Current Pop=(MK,readradii) iop(6/33=2) iop(6/42=6)

apoCaM-CA-Ng.loop2.water5.frame1239 

   -2  1 
C         49.40594       35.19813       18.84380
C         50.09732       33.91891       18.46353
O         50.15656       33.62111       17.27954
H         48.54324       34.98249       19.50783
H         50.12289       35.87018       19.36065
H         49.02784       35.72100       17.93936
N         50.66590       33.08789       19.38265
C         50.66176       33.30432       20.82799
C         49.89931       32.15523       21.48957
O         48.79688       31.89075       21.03102
C         52.11571       33.57457       21.30911
C         53.07946       32.54894       20.77817
O         53.93080       32.86950       19.96375
O         52.90357       31.25630       21.07190
H         51.12950       32.23551       19.03103
H         50.08073       34.21093       21.09095
H         52.17360       33.66062       22.41345
H         52.42302       34.55903       20.89190
N         50.36237       31.46493       22.57961
C         49.60441       30.41569       23.26771
C         49.42789       29.14156       22.44326
O         48.69956       28.26456       22.88797
C         48.26074       30.95809       23.79260
H         51.27086       31.71313       22.99181
H         50.17487       30.11099       24.17359
H         47.75522       30.19080       24.41746
H         48.43853       31.85024       24.43049
H         47.56313       31.23419       22.97804
N         50.13433       28.91955       21.29486
C         50.06530       27.67694       20.52845
C         51.35871       26.89855       20.70302
O         52.43537       27.45604       20.56394
C         49.72710       27.94919       19.04105
C         50.71896       28.83711       18.33975
O         50.37261       29.94155       17.95367
O         52.00601       28.46629       18.20120
H         50.80790       29.62881       20.97666
H         49.23785       27.03260       20.89924
H         48.72676       28.43597       19.01058
H         49.65217       26.98653       18.49090
N         51.31996       25.58130       21.03089
C         52.50499       24.76179       21.21190
C         53.32888       24.58930       19.94836
O         53.07955       25.23273       18.93878
H         50.40482       25.12459       21.16355
H         52.16269       23.74898       21.51624
H         53.14044       25.16825       22.02850
N         54.30671       23.64214       19.94803
C         55.14366       23.27834       18.80384
C         54.32726       23.08442       17.52847
O         53.43860       22.24583       17.48948
C         55.92283       21.98552       19.16968
C         56.55538       21.25745       18.00614
N         57.48120       21.84220       17.21601
O         56.21263       20.10632       17.77586
H         54.42028       23.10164       20.82056
H         55.87705       24.09362       18.61443
H         55.20697       21.27045       19.63419
H         56.69199       22.23150       19.93503
H         57.78497       22.81079       17.38177
H         57.88780       21.31612       16.42714
N         54.63842       23.83061       16.42621
C         54.02268       23.69675       15.11404
C         53.46986       25.02544       14.62217
O         53.39546       25.95850       15.40845
H         55.40788       24.51506       16.49516
H         53.23013       22.91893       15.09077
H         54.83842       23.39012       14.42452
N         53.11886       25.24405       13.31753
C         53.23600       24.25646       12.24827
C         54.47228       24.50515       11.39238
O         54.73081       23.67908       10.52719
C         51.97408       24.25452       11.35117
C         50.69969       23.91920       12.12428
O         51.82867       25.51268       10.73775
H         52.83376       26.20088       13.05384
H         53.35760       23.24005       12.67762
H         52.11204       23.46024       10.57669
H         51.57179       25.35627        9.79142
H         50.50296       24.67940       12.90884
H         49.83719       23.90455       11.42320
H         50.78784       22.91766       12.59502
N         55.29393       25.58759       11.57471
C         56.52798       25.78480       10.81042
C         57.72204       25.75813       11.76534
O         57.51056       25.91808       12.96023
C         56.46911       27.09559        9.96099
C         56.48297       28.37505       10.83808
C         55.24814       27.05316        9.02151
C         56.60970       29.66413       10.02164
H         55.06382       26.28718       12.29357
H         56.64922       24.93528       10.10806
H         57.37432       27.13965        9.32457
H         57.37251       28.34429       11.50268
H         55.57424       28.42949       11.47340
H         54.30123       27.06316        9.60308
H         55.24185       27.91483        8.32484
H         55.27397       26.13279        8.40044
H         55.72350       29.82781        9.37699
H         56.69173       30.53073       10.71062
H         57.52441       29.63116        9.39066
N         59.00705       25.51365       11.37176
C         59.41447       25.09703       10.03421
C         60.80247       25.62379        9.68293
O         61.44743       26.25275       10.50990
C         59.36218       23.54995        9.96829
C         60.23824       22.87996       10.99507
O         59.68469       22.09386       11.93848
O         61.44866       23.03455       10.97582
H         59.70942       25.43441       12.12509
H         58.71922       25.47729        9.26650
H         59.64567       23.18693        8.95882
H         58.31325       23.22827       10.14582
N         61.34042       25.33229        8.46569
C         62.72286       25.60083        8.08439
C         62.78489       26.35840        6.76465
O         62.05673       25.97984        5.85554
C         63.41739       24.22299        7.97174
C         64.85501       24.28300        7.51543
C         65.16046       24.44181        6.15159
C         65.90368       24.15441        8.44120
C         66.48975       24.47730        5.72406
C         67.23322       24.20254        8.01034
C         67.52590       24.36283        6.65322
H         60.76558       24.79625        7.79720
H         63.25312       26.16636        8.87762
H         62.86248       23.53542        7.29558
H         63.37410       23.76875        8.98648
H         64.37064       24.52571        5.41635
H         65.69331       24.02893        9.49590
H         66.71517       24.59576        4.67207
H         68.03721       24.11337        8.72889
H         68.55509       24.39558        6.32083
N         63.69808       27.35637        6.51649
C         64.76359       27.79380        7.41236
C         64.39549       29.03768        8.21454
O         65.25623       29.51933        8.93918
C         65.88547       28.13775        6.42515
C         65.10472       28.81442        5.30962
C         63.90285       27.88227        5.17639
H         65.12005       27.00050        8.09966
H         66.72669       28.72919        6.84650
H         66.30388       27.19248        6.01668
H         64.75693       29.80096        5.68822
H         65.66355       28.97889        4.36402
H         63.01481       28.40797        4.76516
H         64.17510       27.02849        4.51584
N         63.17021       29.63313        8.11942
C         62.82443       30.87310        8.81461
C         62.45644       31.95284        7.79848
O         62.35236       31.63644        6.62090
C         61.64101       30.58930        9.77183
C         61.98641       29.55984       10.86531
C         62.99163       30.03145       11.88712
O         63.35867       29.19740       12.87783
O         63.46350       31.15675       11.85100
H         62.44706       29.21063        7.51845
H         63.70099       31.24900        9.37908
H         60.80148       30.18466        9.16415
H         61.26480       31.50753       10.26467
H         62.36821       28.63471       10.38830
H         61.05399       29.30572       11.41272
N         62.25045       33.26293        8.13058
C         62.41689       33.84411        9.44873
H         63.16982       34.65803        9.39255
H         61.45188       34.27505        9.78746
H         62.77518       33.12718       10.20670
H         61.98020       33.91620        7.37874
Ca        53.32903       29.78386       19.44363
O         56.61959       30.07727       19.15274
H         57.17940       29.77296       19.91069
H         57.22501       30.04863       18.36966
O         55.13325       27.83887       17.37431
H         54.35654       27.25795       17.57010
H         55.73952       27.26789       16.83914
O         55.70067       27.06747       20.55030
H         55.68541       26.97721       21.53626
H         56.61652       26.79542       20.29055
O         55.08991       29.66342       22.19494
H         55.89253       29.79171       22.75980
H         54.37197       29.41858       22.83155
O         54.11811       31.24725       17.00413
H         54.79009       31.09337       16.29379
H         53.25072       31.02479       16.58125

Ca 1.0



