%chk=apoCaM-CA-Ng.loop1.water4.frame404.chk
%nprocshared=20
%mem=10GB
%nosave
#b3lyp/svp scf=(tight,noincore,xqc) Test 
#IOP(5/87=12) Density=Current Pop=(MK,readradii) iop(6/33=2) iop(6/42=6)

apoCaM-CA-Ng.loop1.water4.frame404 

   0  1 
C        -14.36666       95.80459       -1.79668
C        -14.62093       94.74679       -0.76557
O        -13.74959       93.91895       -0.53835
H        -13.37200       95.65907       -2.27147
H        -15.14625       95.75912       -2.58562
H        -14.38839       96.80330       -1.31369
N        -15.81913       94.69817       -0.11581
C        -16.13332       93.69913        0.89806
C        -17.15408       92.72905        0.33325
O        -18.20722       92.54785        0.92727
C        -16.66793       94.38598        2.18185
C        -15.71703       95.37784        2.78952
O        -15.28029       95.20393        4.05142
O        -15.37943       96.37265        2.16771
H        -16.55054       95.37918       -0.37386
H        -15.23335       93.10585        1.15637
H        -16.89598       93.60405        2.93718
H        -17.61496       94.92145        1.94758
N        -16.91725       92.08388       -0.84711
C        -17.91775       91.23827       -1.49261
C        -17.28821       90.12465       -2.31775
O        -16.39854       90.42736       -3.10068
C        -18.86490       92.07478       -2.38054
C        -19.79814       92.94196       -1.52077
C        -20.96505       93.52401       -2.31762
C        -22.00107       94.20040       -1.40022
N        -21.45152       95.34848       -0.67760
H        -16.04962       92.30162       -1.36095
H        -18.55047       90.78617       -0.72582
H        -19.50894       91.36602       -2.93858
H        -18.30847       92.67921       -3.12973
H        -19.21462       93.75525       -1.04567
H        -20.24595       92.29646       -0.73313
H        -21.48932       92.68963       -2.83462
H        -20.59021       94.23428       -3.08436
H        -22.39568       93.45801       -0.66914
H        -22.85291       94.53952       -2.02816
H        -20.71492       95.04599       -0.00106
H        -21.05794       96.04261       -1.35279
H        -22.21955       95.80144       -0.13187
N        -17.73208       88.82220       -2.30583
C        -18.84019       88.26171       -1.51827
C        -20.13856       89.02269       -1.77110
O        -20.67244       89.62823       -0.85507
C        -18.45524       88.10924       -0.02697
C        -17.29447       87.17820        0.14839
O        -16.77895       86.52469       -0.91063
O        -16.77669       87.05591        1.24690
H        -17.27108       88.17001       -2.96012
H        -19.02936       87.21679       -1.84732
H        -19.30202       87.68886        0.54908
H        -18.16979       89.07761        0.41676
N        -20.74537       89.03007       -2.99057
C        -20.26924       88.22313       -4.10185
C        -21.20146       88.23845       -5.29720
O        -22.11108       89.05413       -5.34514
H        -21.61877       89.57077       -3.08294
H        -20.24068       87.18009       -3.73438
H        -19.25163       88.53011       -4.42149
N        -21.10273       87.31327       -6.29587
C        -20.13577       86.21566       -6.31633
C        -20.83846       84.91043       -5.99819
O        -22.06286       84.87244       -5.98287
C        -19.35147       86.16100       -7.64559
C        -20.21539       85.99947       -8.87263
O        -21.06370       86.97594       -9.24900
O        -20.10981       85.00216       -9.56760
H        -21.83004       87.33702       -7.02469
H        -19.37914       86.34755       -5.51983
H        -18.63641       85.31077       -7.59116
H        -18.75634       87.09159       -7.76167
N        -20.11778       83.80303       -5.65188
C        -20.75623       82.55160       -5.27723
C        -21.64137       82.66284       -4.04414
O        -22.41418       81.74387       -3.82170
H        -19.08716       83.84760       -5.64930
H        -19.99445       81.76218       -5.09508
H        -21.38354       82.22634       -6.13473
N        -21.59877       83.74498       -3.20510
C        -22.53545       83.93446       -2.09080
C        -22.81022       85.43322       -1.88059
O        -22.17029       86.26528       -2.50055
C        -22.00492       83.26081       -0.78434
C        -21.75545       81.75562       -0.92897
O        -22.93442       83.42770        0.25243
H        -20.90886       84.48406       -3.39377
H        -23.51416       83.48682       -2.37184
H        -21.04570       83.75948       -0.51068
H        -22.44908       83.27608        1.10393
H        -20.96575       81.54588       -1.67601
H        -21.40980       81.33979        0.04198
H        -22.69788       81.23693       -1.20900
N        -23.77633       85.84323       -1.01173
C        -24.07083       87.24393       -0.70654
C        -23.73836       87.55251        0.75861
O        -24.10601       88.61515        1.23913
C        -25.54639       87.57882       -1.10003
C        -26.58786       86.73707       -0.31197
C        -25.71422       87.42117       -2.62550
C        -28.04224       87.08744       -0.63891
H        -24.32783       85.13036       -0.52049
H        -23.42954       87.93356       -1.29962
H        -25.72273       88.65265       -0.86505
H        -26.43647       86.91343        0.77427
H        -26.45862       85.65434       -0.51347
H        -26.71128       87.76964       -2.96197
H        -24.96536       88.04481       -3.15958
H        -25.58115       86.36283       -2.93472
H        -28.23747       88.16459       -0.45603
H        -28.28900       86.83888       -1.69173
H        -28.71857       86.48657        0.00516
N        -22.98844       86.68699        1.50735
C        -22.63601       86.87687        2.91637
C        -21.81263       88.12436        3.22254
O        -21.68021       88.43772        4.39748
C        -21.83488       85.64587        3.44226
C        -20.50166       85.42575        2.69190
O        -22.60988       84.48227        3.32814
H        -22.66888       85.82221        1.06111
H        -23.58949       86.96048        3.48302
H        -21.56930       85.80591        4.51426
H        -23.19149       84.44153        4.13085
H        -20.65148       85.21322        1.61382
H        -19.84299       86.31221        2.76862
H        -19.95892       84.56128        3.12687
N        -21.16334       88.82818        2.25164
C        -20.25325       89.95500        2.49370
C        -19.03989       89.52785        3.33521
O        -19.04523       88.43909        3.89067
C        -20.99752       91.16047        3.13580
C        -22.26648       91.53307        2.36066
O        -20.14880       92.27781        3.16868
H        -21.28129       88.52864        1.27663
H        -19.87388       90.28090        1.50319
H        -21.29109       90.88540        4.17475
H        -20.51008       92.89876        3.85428
H        -22.02116       91.80052        1.31192
H        -22.98897       90.69249        2.36612
H        -22.76226       92.39954        2.84828
N        -17.95160       90.34218        3.47129
C        -16.84967       90.06159        4.39102
C        -15.52388       89.78389        3.68099
O        -14.55517       89.51700        4.37950
C        -16.69228       91.26264        5.35787
C        -17.99728       91.67451        6.07777
C        -18.58474       90.62754        7.03706
C        -17.71086       90.41678        8.28215
N        -18.32634       89.45309        9.19364
H        -17.91638       91.22346        2.94578
H        -17.06814       89.15295        4.99191
H        -16.36425       92.13933        4.75921
H        -15.89398       91.05878        6.10155
H        -18.76217       91.90836        5.31241
H        -17.81871       92.61365        6.64518
H        -18.75574       89.66764        6.50697
H        -19.57459       91.00277        7.37870
H        -17.59285       91.39051        8.80945
H        -16.70404       90.04885        7.99358
H        -19.27841       89.77957        9.47906
H        -18.39779       88.51886        8.72919
H        -17.73118       89.36311       10.04860
N        -15.38898       89.79298        2.31967
C        -14.11931       89.48799        1.65284
C        -13.04959       90.49494        2.02256
O        -13.23785       91.68233        1.80221
C        -14.29874       89.43858        0.11798
C        -12.99048       89.22676       -0.68511
C        -12.10998       88.07802       -0.23156
O        -10.97253       88.31384        0.14246
O        -12.53017       86.79762       -0.24766
H        -16.21224       89.99725        1.73482
H        -13.79422       88.46994        1.96244
H        -14.75620       90.38655       -0.23947
H        -15.01210       88.62941       -0.11363
H        -12.39286       90.16161       -0.60917
H        -13.25269       89.09279       -1.75654
N        -11.86829       90.06281        2.54693
C        -10.76057       90.93983        2.86064
H         -9.88651       90.65489        2.23666
H        -10.99549       92.00652        2.66447
H        -10.49102       90.82341        3.93010
H        -11.72492       89.05361        2.70308
Ca       -14.57624       86.28079       -0.95017
O        -14.83577       82.39152       -1.74224
H        -14.17349       82.18846       -2.44961
H        -14.92309       81.54640       -1.23339
O        -12.63379       83.81943        0.30066
H        -13.01815       82.91990        0.45180
H        -11.67783       83.65179        0.10407
O        -12.49752       84.97492       -2.99325
H        -11.87571       84.71136       -2.26957
H        -11.91523       85.38384       -3.68156
O        -16.22114       83.67983        0.71643
H        -16.72396       84.37833        1.20446
H        -16.57775       82.82756        1.07198

Ca 1.0



