%chk=apoCaM-CA-Ng.loop4.water5.frame658.chk
%nprocshared=20
%mem=10GB
%nosave
#b3lyp/svp scf=(tight,noincore,xqc) Test 
#IOP(5/87=12) Density=Current Pop=(MK,readradii) iop(6/33=2) iop(6/42=6)

apoCaM-CA-Ng.loop4.water5.frame658 

   -3  1 
C         88.34244       53.49575      104.46378
C         88.65768       54.60101      105.43327
O         87.74585       55.24769      105.92656
H         87.61404       53.83711      103.70378
H         89.26037       53.16033      103.93343
H         87.92209       52.62731      105.01298
N         89.94940       54.80586      105.80943
C         90.42871       55.77283      106.79279
C         89.56138       55.82065      108.05452
O         89.25653       56.89894      108.54934
C         90.64926       57.16776      106.17437
C         91.28073       57.16796      104.80211
O         92.28827       56.35496      104.43740
O         90.85638       57.94842      103.97415
H         90.66085       54.15931      105.43443
H         91.43594       55.41090      107.09659
H         91.28523       57.75795      106.86826
H         89.67660       57.70029      106.08175
N         89.06790       54.66790      108.58352
C         88.17623       54.63019      109.74187
C         88.95686       54.96043      111.01283
O         90.05323       54.43581      111.14992
C         87.46381       53.24660      109.87791
C         88.45458       52.08102      110.15298
C         86.59599       52.97918      108.62813
C         87.78242       50.73248      110.38308
H         89.28664       53.79289      108.09091
H         87.35963       55.35400      109.55758
H         86.76973       53.32696      110.74591
H         89.02429       52.29040      111.07890
H         89.17386       51.97224      109.31637
H         85.95570       52.08604      108.77024
H         85.91215       53.83384      108.43606
H         87.22293       52.82191      107.72605
H         87.23789       50.39331      109.48014
H         88.56622       49.97852      110.60781
H         87.08668       50.79377      111.24602
N         88.52648       55.79306      112.00562
C         87.27350       56.53469      112.06113
C         87.60614       58.00132      111.97310
O         88.66873       58.40809      112.42774
C         86.49557       56.17178      113.34512
C         85.21412       56.95140      113.50474
O         84.96990       57.61738      114.65029
O         84.37942       56.96303      112.61380
H         89.17004       55.93256      112.80256
H         86.60125       56.28903      111.22242
H         87.12559       56.32979      114.24787
H         86.23512       55.09323      113.28857
N         86.77585       58.84875      111.31293
C         87.17479       60.20658      111.02783
C         85.98379       61.09832      110.82803
O         85.18612       61.26841      111.73928
H         85.90186       58.48660      110.89981
H         87.81277       60.17816      110.11580
H         87.79327       60.62610      111.84823
N         85.84430       61.74186      109.64292
C         84.79413       62.70554      109.34259
C         83.38942       62.12055      109.31849
O         82.45094       62.90429      109.37557
C         85.13393       63.43630      108.01346
C         85.51352       62.52777      106.85585
O         84.67403       62.02148      106.13762
O         86.81346       62.32435      106.56760
H         86.58062       61.57918      108.94461
H         84.80428       63.47257      110.15261
H         86.04754       64.02781      108.23066
H         84.34974       64.16411      107.71214
N         83.14301       60.78158      109.20580
C         81.78630       60.24334      109.11444
C         81.05616       60.63581      107.82913
O         79.89828       60.27852      107.67379
H         83.93144       60.11991      109.15959
H         81.20802       60.56991      110.00436
H         81.83870       59.13286      109.12554
N         81.70548       61.30251      106.83685
C         81.18953       61.64448      105.52072
C         80.63807       60.44179      104.76162
O         79.76120       60.61608      103.92733
C         80.30121       62.91180      105.53354
C         81.11580       64.14474      105.99671
C         80.37733       65.44875      105.81023
N         80.28352       66.34877      106.81762
O         79.90428       65.72101      104.71655
H         82.68066       61.53117      106.98564
H         82.07497       61.93884      104.90964
H         79.39475       62.76377      106.15751
H         79.98214       63.10784      104.48575
H         82.02812       64.21692      105.36678
H         81.44033       64.02445      107.05293
H         80.71441       66.16765      107.73555
H         79.80996       67.25259      106.66557
N         81.22820       59.21568      104.89580
C         80.95456       58.07675      104.01335
C         82.17433       57.73849      103.17646
O         82.07111       56.87992      102.31014
C         80.53071       56.80247      104.79993
C         81.62160       56.30152      105.77237
C         79.21260       57.01570      105.53987
H         81.96195       59.11021      105.61084
H         80.15098       58.33988      103.29215
H         80.35192       55.99132      104.05772
H         81.84776       57.05215      106.55721
H         81.29053       55.36819      106.27459
H         82.56117       56.06554      105.22841
H         79.32433       57.77805      106.33760
H         78.42926       57.34161      104.82336
H         78.88458       56.05646      105.99559
N         83.37911       58.31708      103.42618
C         84.60113       57.94565      102.75661
C         85.28788       59.20223      102.22924
O         84.85398       60.30270      102.54624
C         85.44024       57.21701      103.81697
C         86.76619       56.82512      103.28940
N         87.86946       57.46417      103.72335
O         86.84567       55.96122      102.43059
H         83.48731       59.00354      104.18275
H         84.40098       57.25995      101.90344
H         84.91541       56.30495      104.18311
H         85.56840       57.89351      104.69093
H         87.80930       58.22497      104.41802
H         88.77595       57.22144      103.32482
N         86.35053       59.11515      101.38013
C         87.03724       60.29741      100.86714
C         87.84168       59.90695       99.64655
O         88.58883       58.94356       99.71076
C         87.86945       60.96841      101.98715
C         88.22692       62.39493      101.64500
C         89.22359       62.70837      100.70509
C         87.52998       63.43940      102.27857
C         89.51034       64.04721      100.40609
C         87.80897       64.76993      101.97042
C         88.79748       65.08125      101.03458
O         89.04947       66.37417      100.74778
H         86.63644       58.18127      101.04936
H         86.26010       61.02405      100.54137
H         88.76308       60.39116      102.28471
H         87.23341       60.99958      102.89480
H         89.78233       61.92369      100.21071
H         86.75265       63.22407      103.00191
H         90.28278       64.28144       99.68460
H         87.25004       65.55844      102.45883
H         89.71640       66.63837      100.09896
N         87.68393       60.57331       98.47025
C         88.23052       60.08123       97.21402
C         89.50433       60.82195       96.85088
O         89.42009       62.01713       96.60303
C         87.13801       60.22039       96.12909
C         87.58692       59.77623       94.73343
C         86.45158       59.90635       93.75901
O         85.38146       59.09414       93.85726
O         86.49358       60.74455       92.87259
H         87.09431       61.42044       98.45176
H         88.44027       59.00718       97.31381
H         86.82696       61.28893       96.06113
H         86.25234       59.62715       96.44701
H         87.93517       58.72265       94.74074
H         88.42592       60.42847       94.40834
N         90.73895       60.22461       96.79199
C         91.06349       58.84319       97.17624
C         90.39333       57.79959       96.30196
O         90.53095       57.83717       95.08700
C         92.59991       58.62833       97.15390
C         93.11815       57.24371       97.63067
C         92.69294       56.86920       99.02800
O         93.55364       56.94445      100.06308
O         91.56357       56.46870       99.22749
H         91.52710       60.83456       96.51886
H         90.75182       58.71032       98.22909
H         93.05966       59.39968       97.80986
H         92.97949       58.79561       96.12103
H         94.22732       57.29869       97.60876
H         92.81380       56.43137       96.93543
N         89.70102       56.78472       96.89272
C         89.10298       55.69394       96.16155
H         88.27020       56.06799       95.53385
H         89.86739       55.18935       95.53310
H         88.70399       54.94656       96.88293
H         89.62140       56.75749       97.91755
Ca        92.88787       56.68277      102.24640
O         93.24031       54.16349      100.58757
H         92.85922       53.59795       99.87071
H         94.13307       53.77677      100.76841
O         93.64197       59.20532      103.04935
H         93.31884       59.70380      102.25775
H         94.57174       58.95291      102.82105
O         90.92827       58.85190      101.30385
H         90.81154       58.23280      100.54993
H         90.08282       58.74192      101.79840
O         90.03752       55.51584      101.40125
H         89.79275       55.10091      100.53771
H         89.17495       55.59863      101.86872
O         95.25714       55.63704      102.54253
H         96.01678       55.01353      102.46269
H         95.65509       56.53002      102.70140

Ca 1.0



