%chk=apoCaM-CA-Ng.loop4.water6.frame908.chk
%nprocshared=20
%mem=10GB
%nosave
#b3lyp/svp scf=(tight,noincore,xqc) Test 
#IOP(5/87=12) Density=Current Pop=(MK,readradii) iop(6/33=2) iop(6/42=6)

apoCaM-CA-Ng.loop4.water6.frame908 

   -3  1 
C         90.36900        6.08953       46.80033
C         89.94657        5.49742       48.11401
O         90.15749        4.31176       48.32159
H         91.46515        5.96829       46.67520
H         89.84539        5.57219       45.97006
H         90.12962        7.17337       46.74740
N         89.35627        6.27950       49.06174
C         88.93863        5.81573       50.37965
C         90.14439        5.30184       51.16040
O         90.12541        4.19501       51.68082
C         87.77175        4.80961       50.25464
C         87.18350        4.44078       51.58830
O         86.65736        5.39297       52.38231
O         87.16380        3.27507       51.94986
H         89.21040        7.27945       48.85227
H         88.55274        6.70399       50.92941
H         88.10677        3.89252       49.72531
H         86.96219        5.27623       49.65036
N         91.25611        6.08558       51.25009
C         92.46587        5.70404       51.98273
C         92.20260        5.65722       53.49142
O         91.21843        6.24102       53.92547
C         93.64595        6.68482       51.65699
C         93.30028        8.17454       51.93944
C         94.11644        6.46309       50.20683
C         94.51806        9.09680       51.90423
H         91.23291        6.97299       50.73252
H         92.74975        4.68600       51.64526
H         94.50457        6.43747       52.30175
H         92.86261        8.26455       52.95608
H         92.56012        8.56335       51.20953
H         95.01015        7.07273       49.97166
H         94.40876        5.39965       50.06759
H         93.31205        6.70558       49.48127
H         94.19697       10.13578       52.12891
H         95.25415        8.78153       52.67438
H         95.00421        9.10056       50.90864
N         93.01989        5.00975       54.38674
C         94.16625        4.16228       54.03920
C         93.74329        2.88254       53.32663
O         94.60974        2.20026       52.79567
C         94.98203        3.79218       55.29401
C         95.51736        5.01418       55.98973
O         96.27591        5.77292       55.40666
O         95.16897        5.27253       57.26491
H         92.78488        5.10791       55.38794
H         94.84849        4.71331       53.37354
H         95.84809        3.15544       55.00819
H         94.34197        3.21414       55.99674
N         92.43758        2.49283       53.26621
C         91.97658        1.33868       52.51774
C         92.47965        0.00807       53.03465
O         93.24736       -0.05453       53.98486
H         91.71322        3.05389       53.73466
H         92.25453        1.45502       51.45002
H         90.86491        1.31057       52.58195
N         92.01078       -1.12387       52.44028
C         92.31221       -2.47906       52.89432
C         93.75848       -2.92335       52.68785
O         94.07798       -4.01768       53.13262
C         91.34147       -3.49523       52.23398
C         91.49438       -3.63944       50.73724
O         91.76185       -4.72922       50.25804
O         91.29884       -2.59223       49.91319
H         91.31835       -0.99375       51.68905
H         92.09917       -2.51236       53.98642
H         90.29634       -3.18701       52.45187
H         91.49656       -4.49134       52.70482
N         94.69124       -2.17277       52.02754
C         96.06168       -2.63976       51.82600
C         96.17630       -3.83394       50.88472
O         97.27588       -4.33674       50.71792
H         94.44475       -1.23991       51.66629
H         96.49837       -2.89529       52.81623
H         96.66957       -1.81949       51.38805
N         95.09655       -4.30871       50.20061
C         95.10770       -5.39563       49.22543
C         95.98557       -5.06619       48.03073
O         96.67006       -5.93956       47.51109
C         95.42077       -6.77041       49.85447
C         94.43580       -7.12594       50.98150
C         94.62667       -8.52584       51.51677
N         93.82506       -8.97941       52.50723
O         95.48965       -9.26055       51.05736
H         94.19091       -3.84190       50.32064
H         94.07575       -5.45661       48.81400
H         96.46042       -6.79573       50.24482
H         95.32593       -7.53996       49.05479
H         93.39746       -7.05031       50.59573
H         94.56034       -6.40418       51.81736
H         93.09053       -8.37613       52.90630
H         93.93577       -9.93607       52.87499
N         95.98376       -3.80315       47.52458
C         96.67268       -3.40265       46.30440
C         95.72011       -2.68700       45.33857
O         96.17464       -2.26704       44.28790
C         97.87264       -2.46521       46.64631
C         97.44062       -1.15553       47.33140
C         98.91115       -3.18629       47.51814
H         95.47143       -3.07847       48.05035
H         97.08344       -4.29303       45.77753
H         98.38154       -2.19529       45.69337
H         96.73238       -0.59125       46.69041
H         96.96051       -1.34966       48.31357
H         98.32470       -0.50592       47.50338
H         99.78637       -2.52525       47.69609
H         98.47952       -3.46485       48.50139
H         99.27063       -4.10514       47.00933
N         94.41554       -2.42701       45.67574
C         93.58248       -1.47468       44.95654
C         92.19896       -2.02786       44.66120
O         91.58758       -2.62389       45.53210
C         93.43438       -0.23943       45.86821
C         92.60200        0.85095       45.24049
N         91.46563        1.27899       45.83846
O         92.95730        1.35207       44.18462
H         94.02171       -2.78205       46.55365
H         94.06972       -1.12656       44.01989
H         94.44321        0.17630       46.08191
H         92.98600       -0.54937       46.83861
H         91.14863        0.86810       46.72883
H         90.89685        2.02319       45.40857
N         91.59561       -1.69099       43.48164
C         90.17642       -1.90195       43.17886
C         89.89051       -1.35956       41.78622
O         90.23897       -0.22077       41.50906
C         89.27841       -1.18665       44.23030
C         87.79669       -1.33191       43.95498
C         87.02314       -2.26020       44.67587
C         87.16800       -0.52665       42.98796
C         85.65348       -2.39113       44.41870
C         85.79900       -0.65372       42.74040
C         85.03771       -1.58784       43.44845
O         83.71953       -1.70163       43.19055
H         92.16588       -1.17783       42.79357
H         89.93929       -2.98787       43.21351
H         89.52788       -0.10784       44.32114
H         89.47593       -1.63399       45.22363
H         87.47895       -2.89094       45.42790
H         87.73343        0.20869       42.43265
H         85.07325       -3.11733       44.97389
H         85.32866       -0.02552       41.99576
H         83.15675       -2.33704       43.65352
N         89.20142       -2.10971       40.88075
C         88.87589       -1.63764       39.54008
C         87.42486       -1.18456       39.52951
O         86.56453       -2.01008       39.79908
C         89.13862       -2.77923       38.53819
C         88.85179       -2.38252       37.08593
C         89.12321       -3.53704       36.16562
O         88.22685       -3.99803       35.47761
O         90.35876       -4.06998       36.09323
H         88.82548       -3.02148       41.18154
H         89.54384       -0.79998       39.26429
H         88.50142       -3.65346       38.80609
H         90.20259       -3.08633       38.62881
H         89.50344       -1.53263       36.79373
H         87.79072       -2.07097       36.98391
N         87.04041        0.10809       39.29497
C         87.93505        1.21641       38.96424
C         88.38804        1.13531       37.52113
O         87.54348        1.05325       36.63878
C         87.24160        2.57881       39.16076
C         86.90610        2.83914       40.63603
C         86.37561        4.22775       40.82355
O         85.14222        4.42040       41.32611
O         87.06904        5.19006       40.53583
H         86.03458        0.31911       39.39275
H         88.80429        1.23508       39.65677
H         86.32321        2.65359       38.53561
H         87.95291        3.36993       38.82904
H         87.82395        2.73649       41.25523
H         86.15705        2.10114       40.99042
N         89.71023        1.23388       37.20740
C         90.20618        1.26624       35.84553
H         90.93410        0.44367       35.69412
H         89.39541        1.16530       35.09336
H         90.71865        2.23661       35.66843
H         90.40184        1.33365       37.96491
Ca        86.42219        7.98544       41.08462
O         86.01404        6.56219       43.80920
H         85.56664        7.09948       44.50997
H         85.58836        5.67014       43.87041
O         85.59869        9.83177       38.82039
H         84.85660        9.55522       38.22375
H         85.18932       10.48678       39.43828
O         83.31998        6.96437       41.26892
H         83.06068        6.57332       42.14308
H         82.72430        7.74709       41.16113
O         88.64650        7.90125       38.86021
H         88.21996        7.07952       38.50939
H         88.42285        8.60037       38.19510
O         84.69493        9.98417       42.57121
H         84.53271        9.17079       43.11086
H         83.89152       10.06499       41.99685
O         85.02924        6.35902       38.38849
H         84.51801        5.58641       38.73819
H         84.34123        6.95318       37.99669

Ca 1.0



