%chk=apoCaM-CA-Ng.loop1.water4.frame552.chk
%nprocshared=20
%mem=10GB
%nosave
#b3lyp/svp scf=(tight,noincore,xqc) Test 
#IOP(5/87=12) Density=Current Pop=(MK,readradii) iop(6/33=2) iop(6/42=6)

apoCaM-CA-Ng.loop1.water4.frame552 

   0  1 
C         72.92867       59.26624       61.06606
C         72.26411       58.10352       60.39107
O         71.10538       57.84068       60.67817
H         73.97110       59.40134       60.70796
H         72.35901       60.19401       60.84879
H         72.94962       59.09761       62.16265
N         72.93925       57.36617       59.46347
C         72.36768       56.23289       58.74464
C         71.17624       56.64869       57.89172
O         70.36979       55.79063       57.57315
C         72.03551       55.05609       59.69915
C         73.23325       54.52265       60.44544
O         73.07270       53.48841       61.29211
O         74.34757       54.99716       60.28674
H         73.91126       57.62540       59.23524
H         73.13053       55.85205       58.02862
H         71.62352       54.21049       59.10669
H         71.26404       55.36274       60.43477
N         71.09940       57.91398       57.36997
C         70.10515       58.41508       56.41908
C         68.72845       58.69059       57.01652
O         68.29910       59.83476       56.95043
C         70.02911       57.51974       55.15397
C         69.10348       58.04200       54.03648
C         69.52528       59.41430       53.48524
C         68.70076       59.85276       52.26243
N         67.27673       60.00528       52.56740
H         71.86051       58.57157       57.59510
H         70.48722       59.40385       56.08235
H         69.65583       56.51050       55.41900
H         71.05420       57.40511       54.73900
H         68.06112       58.08402       54.41522
H         69.13838       57.30279       53.20612
H         70.58996       59.35967       53.16988
H         69.43037       60.19087       54.27226
H         68.82941       59.11898       51.43615
H         69.10039       60.83123       51.91444
H         67.14501       60.66594       53.36720
H         66.79119       60.39226       51.72610
H         66.84573       59.08029       52.79081
N         67.94215       57.70157       57.52367
C         66.52913       57.87519       57.82987
C         66.24885       57.55535       59.29936
O         66.56200       56.43963       59.69129
C         65.78378       56.91976       56.86826
C         64.31643       57.01234       57.02627
O         63.76895       58.09852       56.93042
O         63.59163       55.92766       57.34697
H         68.30710       56.74785       57.59459
H         66.20814       58.90392       57.59314
H         66.10433       55.86804       57.04274
H         66.03624       57.19326       55.82196
N         65.69907       58.42309       60.21453
C         65.26163       59.80481       60.02743
C         63.87646       60.01416       60.62277
O         63.78673       60.57632       61.70557
H         65.62544       58.07826       61.18524
H         65.29692       60.17530       58.98795
H         65.96525       60.43470       60.61538
N         62.75163       59.60115       59.97065
C         61.39838       59.66978       60.54381
C         60.76302       58.25501       60.52762
O         61.77521       57.32328       60.66494
C         60.54700       60.69423       59.77051
C         60.53200       60.44603       58.28325
O         60.03651       59.30004       57.78427
O         60.98080       61.28663       57.51971
H         62.86053       59.19516       59.03137
H         61.45164       60.00450       61.60293
H         60.98204       61.70260       59.94987
H         59.50681       60.69898       60.16078
N         59.69266       58.04697       61.52338
C         59.18828       56.65445       61.52745
C         60.12274       55.59959       62.13815
O         59.81739       54.42282       62.01158
H         59.95602       58.36718       62.48263
H         58.97271       56.36493       60.47677
H         58.22118       56.61807       62.07306
N         61.25960       55.93133       62.81679
C         62.21877       54.96619       63.34930
C         62.94417       54.18717       62.25475
O         63.40424       54.79532       61.29774
C         63.28371       55.68784       64.23023
C         64.20330       56.66586       63.46658
O         62.62633       56.37770       65.26140
H         61.45095       56.92376       62.99423
H         61.68615       54.26391       64.02850
H         63.92591       54.89427       64.67800
H         63.29290       56.51990       65.98353
H         64.92084       57.13247       64.17231
H         64.81323       56.14095       62.70444
H         63.62907       57.47597       62.97233
N         63.22991       52.86186       62.42987
C         64.21574       52.14670       61.61162
C         63.66643       50.94345       60.86170
O         64.44165       50.36066       60.11461
C         65.44038       51.71635       62.48714
C         65.01986       50.80189       63.67253
C         66.21440       52.95616       62.96968
C         66.19869       50.16889       64.41315
H         62.82414       52.37915       63.24405
H         64.60431       52.81491       60.81115
H         66.13614       51.14416       61.83318
H         64.39857       49.96563       63.28689
H         64.41684       51.37389       64.40924
H         65.59312       53.57625       63.64526
H         67.14265       52.66944       63.50319
H         66.52150       53.57458       62.09917
H         66.79960       49.54817       63.71567
H         66.84802       50.93380       64.88333
H         65.81123       49.51403       65.22274
N         62.37737       50.50931       60.96959
C         61.87807       49.37030       60.19505
C         61.42745       48.24673       61.11033
O         61.35495       48.42792       62.31808
C         60.73098       49.84424       59.26529
C         61.22585       50.89317       58.26829
O         60.20236       48.76670       58.53487
H         61.72224       50.99975       61.59586
H         62.68586       48.94075       59.56254
H         59.93951       50.29714       59.91059
H         59.22037       48.89945       58.47610
H         62.01085       50.45894       57.61262
H         60.38080       51.23584       57.63441
H         61.65060       51.76850       58.79636
N         61.13229       47.02914       60.57037
C         60.64638       45.88811       61.32724
C         61.66266       44.75825       61.23215
O         62.19181       44.36536       62.26282
C         59.23004       45.52262       60.81186
C         58.60908       44.34446       61.55808
O         59.25392       45.23510       59.43514
H         61.26063       46.89654       59.55691
H         60.53996       46.15559       62.40322
H         58.58678       46.41740       61.00179
H         58.52492       45.75341       59.00389
H         58.54881       44.56498       62.64418
H         57.58087       44.16885       61.17463
H         59.20691       43.42246       61.39965
N         62.00156       44.20470       60.03093
C         63.01407       43.16873       59.87077
C         64.06841       43.65498       58.89499
O         63.71804       44.05677       57.79257
C         62.38084       41.86715       59.33701
C         63.44097       40.74915       59.25707
C         62.89624       39.45443       58.65246
C         64.01174       38.39823       58.58653
N         63.54723       37.17541       57.93562
H         61.53473       44.53791       59.17614
H         63.48489       42.91975       60.84789
H         61.93719       42.05000       58.33349
H         61.56953       41.54127       60.02458
H         63.83296       40.54749       60.27903
H         64.28543       41.08130       58.61608
H         62.53062       39.66591       57.62394
H         62.05128       39.07120       59.26485
H         64.36019       38.16116       59.61699
H         64.87588       38.80288       58.01256
H         64.33023       36.48230       57.91669
H         62.74244       36.76761       58.46359
H         63.25947       37.38380       56.95177
N         65.39161       43.57168       59.20423
C         66.43327       43.94682       58.25902
C         66.39036       45.44390       57.96081
O         66.25661       45.77801       56.79223
C         67.81413       43.43623       58.72876
C         68.92111       43.73757       57.70679
C         70.22314       43.12278       58.13190
O         71.19799       43.82704       58.33960
O         70.32549       41.78657       58.27023
H         65.66364       43.16970       60.11492
H         66.24568       43.39529       57.30749
H         67.73445       42.33198       58.84757
H         68.09899       43.84769       59.71254
H         69.04191       44.83839       57.60649
H         68.64674       43.32050       56.71364
N         66.46681       46.42532       58.90811
C         66.56237       46.20473       60.33527
H         66.57132       47.18247       60.86181
H         65.68393       45.63526       60.70071
H         67.50173       45.68879       60.59769
H         66.42266       47.40666       58.59150
Ca        61.92195       56.68544       58.54113
O         60.53119       54.10185       58.83596
H         59.67953       54.19026       59.33130
H         61.22606       54.04966       59.53983
O         59.92480       55.05841       55.84491
H         60.08792       54.63550       54.96477
H         59.00665       54.77765       56.08709
O         58.40566       56.94602       57.90391
H         57.87127       57.75279       58.11350
H         57.74030       56.21562       57.85079
O         61.79836       58.09058       54.80291
H         62.47605       58.81050       54.74456
H         62.13391       57.38608       54.19354

Ca 1.0



