%chk=apoCaM-CA-Ng.loop1.water6.frame593.chk
%nprocshared=20
%mem=10GB
%nosave
#b3lyp/svp scf=(tight,noincore,xqc) Test 
#IOP(5/87=12) Density=Current Pop=(MK,readradii) iop(6/33=2) iop(6/42=6)

apoCaM-CA-Ng.loop1.water6.frame593 

   0  1 
C         69.50810      109.82429      106.54413
C         69.43369      110.92024      107.56668
O         69.76231      110.66953      108.71731
H         69.16692      110.17373      105.54707
H         70.55408      109.46370      106.45658
H         68.85856      108.98128      106.86164
N         69.00116      112.16544      107.21818
C         68.86729      113.26500      108.16730
C         67.41989      113.70351      108.25863
O         66.69857      113.62586      107.27250
C         69.80656      114.43181      107.80446
C         69.55407      115.02722      106.44506
O         70.42761      114.99812      105.59335
O         68.38194      115.62699      106.16891
H         68.73999      112.34120      106.23548
H         69.17777      112.93709      109.18407
H         70.85181      114.05331      107.84599
H         69.70804      115.23494      108.56724
N         66.91505      114.13741      109.44643
C         65.51803      114.52139      109.61087
C         65.23239      115.76246      108.79472
O         65.80454      116.80757      109.07449
C         65.18724      114.75804      111.09818
C         65.33195      113.45343      111.90081
C         65.09473      113.68173      113.39670
C         65.28163      112.39800      114.22523
N         64.27810      111.37822      113.91246
H         67.54802      114.17260      110.26004
H         64.87554      113.68408      109.25684
H         64.13834      115.11524      111.19663
H         65.86450      115.54056      111.50729
H         66.35387      113.03683      111.78041
H         64.60323      112.71938      111.49803
H         64.07733      114.09461      113.56789
H         65.83958      114.42637      113.75453
H         65.19264      112.66636      115.30055
H         66.30245      111.98483      114.06123
H         64.41020      110.56523      114.55629
H         63.31690      111.76581      114.05252
H         64.38564      111.03320      112.93275
N         64.38705      115.69567      107.72720
C         64.11773      116.81745      106.84099
C         62.60721      116.96952      106.65358
O         62.13016      116.78740      105.54142
C         64.87946      116.54626      105.52422
C         64.81877      117.66189      104.51839
O         65.42912      117.54778      103.46820
O         64.11398      118.78466      104.75593
H         63.97223      114.78407      107.47886
H         64.52951      117.76731      107.24957
H         64.50685      115.60954      105.05628
H         65.95078      116.40496      105.77812
N         61.75668      117.30126      107.67001
C         62.14823      117.58352      109.03890
C         61.50731      116.61859      110.00926
O         61.68286      115.41829      109.85393
H         60.75957      117.38644      107.44257
H         61.86791      118.62947      109.28529
H         63.23858      117.51244      109.17392
N         60.82689      117.08866      111.09567
C         60.34095      116.23547      112.17699
C         58.87639      116.47752      112.52751
O         58.45302      115.98790      113.56652
C         61.26255      116.41048      113.40512
C         61.33606      117.82239      113.91744
O         60.23296      118.44127      114.37845
O         62.40668      118.40864      113.93381
H         60.74819      118.10946      111.22297
H         60.42490      115.15821      111.91165
H         62.28399      116.07743      113.11426
H         60.92463      115.74360      114.22828
N         58.01513      117.12562      111.68707
C         56.59204      117.25620      111.97866
C         55.83102      116.23151      111.17914
O         54.96594      116.58482      110.39376
H         58.34659      117.44664      110.76631
H         56.25892      118.29526      111.76338
H         56.37417      117.05617      113.04922
N         56.13386      114.91439      111.35017
C         55.56999      113.81548      110.58056
C         56.70905      113.14321      109.83923
O         57.68765      112.75467      110.46020
C         54.78022      112.83811      111.48345
C         55.57371      112.27451      112.66841
O         53.64520      113.49232      111.98834
H         56.85422      114.67421      112.04466
H         54.84446      114.19556      109.82810
H         54.45666      111.96907      110.86214
H         52.97727      113.51741      111.25289
H         55.88328      113.08603      113.35988
H         54.93045      111.57270      113.23909
H         56.46885      111.71520      112.33302
N         56.67194      113.05588      108.48129
C         57.80662      112.62950      107.67447
C         58.26359      113.88044      106.94960
O         59.38410      114.31884      107.17648
C         57.42573      111.44650      106.73889
C         56.75122      110.27169      107.50206
C         58.65238      110.95297      105.94973
C         57.58510      109.63957      108.62177
H         55.83116      113.39108      107.98946
H         58.64339      112.28792      108.32379
H         56.67409      111.80028      106.00051
H         56.48706      109.47533      106.77199
H         55.79961      110.63157      107.94936
H         59.07453      111.77128      105.33045
H         59.45039      110.58888      106.63040
H         58.36281      110.12386      105.26872
H         57.00230      108.81686      109.08819
H         58.53094      109.21258      108.23340
H         57.81316      110.37750      109.41489
N         57.39775      114.56728      106.14647
C         57.63315      115.93384      105.68859
C         56.66424      116.29811      104.56936
O         55.45861      116.22642      104.76727
C         57.48888      116.94532      106.87226
C         56.13964      116.86774      107.60310
O         58.49648      116.72559      107.81956
H         56.48172      114.14235      105.93472
H         58.66361      116.01179      105.27601
H         57.61083      117.96904      106.44579
H         58.59782      117.56852      108.33574
H         56.00657      115.86365      108.05726
H         56.12634      117.62747      108.41147
H         55.27584      117.08737      106.95109
N         57.12859      116.68246      103.34604
C         56.23841      117.05550      102.24987
C         57.00068      117.13267      100.93989
O         56.63368      116.41768      100.01768
C         55.48086      118.38354      102.54140
C         54.48134      118.70368      101.41720
O         56.38985      119.44347      102.69384
H         58.14819      116.67938      103.18491
H         55.47955      116.24764      102.13426
H         54.90313      118.26507      103.48404
H         55.87139      120.22856      103.01247
H         55.00458      118.86022      100.44979
H         53.75534      117.87042      101.30380
H         53.91598      119.62811      101.65820
N         58.07843      117.95547      100.78185
C         58.79369      118.04453       99.51500
C         60.16923      118.64419       99.70844
O         60.30403      119.69416      100.32185
C         57.97193      118.79537       98.44313
C         57.81143      120.30247       98.69444
C         56.88698      120.92108       97.64020
C         56.79223      122.44270       97.80117
N         55.83138      123.00429       96.85226
H         58.42063      118.49199      101.59300
H         58.93941      117.00930       99.13321
H         56.97037      118.32213       98.36733
H         58.47649      118.66722       97.45954
H         58.80764      120.79149       98.63061
H         57.38215      120.48019       99.70408
H         55.87633      120.47102       97.75087
H         57.26914      120.69549       96.61969
H         57.79522      122.89347       97.62493
H         56.47042      122.69448       98.83554
H         55.80936      124.04388       96.95973
H         56.10717      122.76863       95.87123
H         54.87660      122.62485       97.04982
N         61.24748      118.01286       99.17613
C         62.60998      118.49080       99.33272
C         63.10287      118.35488      100.80024
O         62.98207      119.58602      101.44926
C         63.53417      117.77993       98.32313
C         64.94759      118.38066       98.31132
C         65.72526      117.88883       97.12348
O         65.96141      116.57392       96.95855
O         66.13500      118.68359       96.29129
H         61.08754      117.17083       98.60129
H         62.64561      119.56201       99.02780
H         63.08795      117.94859       97.31635
H         63.57942      116.68380       98.49914
H         65.48079      118.12044       99.25024
H         64.87649      119.48875       98.24279
N         62.40693      117.33078      101.60064
C         62.61356      115.96339      101.12646
H         62.02074      115.77282      100.21139
H         63.68855      115.75696      100.94383
H         62.23817      115.25379      101.89635
H         62.79938      117.37990      102.56870
Ca        65.10938      120.08485      102.09963
O         66.77271      122.96666      103.06428
H         66.25710      123.73967      102.72226
H         67.29078      123.33072      103.82548
O         67.69631      119.03685      101.10988
H         68.54872      119.33170      100.70231
H         67.93520      118.23577      101.64049
O         63.49269      122.49853      102.48466
H         63.02633      123.10964      103.10776
H         63.08850      122.68213      101.59974
O         67.65612      120.18328      104.28532
H         67.73073      119.74285      105.16891
H         68.53307      120.02508      103.85347
O         65.85500      122.09161      100.10796
H         65.47486      121.84706       99.22739
H         66.10064      123.04635      100.02014
O         64.73514      121.74399      105.29243
H         63.87496      121.30081      105.50133
H         64.78116      122.50176      105.92753

Ca 1.0



