%chk=apoCaM-CA-Ng.loop2.water4.frame1478.chk
%nprocshared=20
%mem=10GB
%nosave
#b3lyp/svp scf=(tight,noincore,xqc) Test 
#IOP(5/87=12) Density=Current Pop=(MK,readradii) iop(6/33=2) iop(6/42=6)

apoCaM-CA-Ng.loop2.water4.frame1478 

   -2  1 
C         37.74100       60.45749       82.30329
C         38.39067       61.81968       82.35634
O         39.37521       61.92785       83.07247
H         36.84601       60.36294       81.67066
H         38.48357       59.72014       81.93299
H         37.43972       60.16749       83.33170
N         37.96404       62.92535       81.67383
C         36.83028       63.01177       80.75474
C         35.73421       63.94790       81.27480
O         34.67919       63.98058       80.65549
C         37.34089       63.37832       79.33879
C         38.21862       64.60024       79.34847
O         39.38892       64.53330       79.00957
O         37.71270       65.75517       79.79344
H         38.50948       63.79038       81.81698
H         36.31942       62.04321       80.64764
H         36.48156       63.52560       78.64813
H         37.94027       62.52376       78.95518
N         35.86227       64.67331       82.43054
C         34.73677       65.37692       83.05127
C         34.10492       66.47098       82.20188
O         33.01701       66.90148       82.56071
C         35.15352       65.96816       84.40524
H         36.75392       64.65149       82.94451
H         33.94945       64.61277       83.23809
H         35.55044       65.16854       85.06617
H         35.94404       66.73678       84.26095
H         34.28591       66.43930       84.91504
N         34.70955       66.98688       81.09407
C         34.08516       68.00748       80.24983
C         33.93864       67.55289       78.79429
O         33.12407       68.14302       78.09811
C         34.86541       69.34397       80.34743
C         36.29289       69.15323       79.93486
O         37.31338       69.34521       80.78921
O         36.53803       68.69630       78.83451
H         35.65782       66.66864       80.86524
H         33.05361       68.21510       80.60899
H         34.83941       69.70617       81.39757
H         34.38839       70.11215       79.70071
N         34.72227       66.57397       78.23945
C         34.62853       66.16765       76.84469
C         34.82026       67.34515       75.91811
O         33.89057       67.66297       75.18943
H         35.43557       66.10072       78.80381
H         33.62675       65.71675       76.67378
H         35.39543       65.39301       76.62290
N         35.98607       68.05768       75.90283
C         36.13352       69.28939       75.12944
C         37.57318       69.80148       75.15383
O         38.16514       69.95499       74.09443
C         35.18020       70.37132       75.70826
C         35.21046       71.66241       74.93418
N         34.80687       71.70270       73.64349
O         35.58143       72.68756       75.48597
H         36.77287       67.72392       76.47759
H         35.86271       69.07732       74.07046
H         35.45381       70.56556       76.76846
H         34.12906       70.02023       75.70886
H         34.47289       70.85157       73.16852
H         34.81405       72.59123       73.12151
N         38.18309       70.11994       76.32939
C         39.50949       70.72467       76.40014
C         39.96158       70.97329       77.83802
O         39.29318       70.52159       78.75638
H         37.65389       69.96669       77.19156
H         39.44558       71.69786       75.87021
H         40.26045       70.08078       75.89397
N         41.06266       71.71864       78.15714
C         41.92757       72.40470       77.20064
C         43.41570       72.07179       77.38621
O         44.20302       72.54511       76.57829
C         41.70896       73.93428       77.34792
C         40.26936       74.34665       77.01760
O         41.99814       74.33571       78.66576
H         41.24286       71.87945       79.16069
H         41.66664       72.11623       76.16200
H         42.36409       74.46799       76.61789
H         42.79194       74.92948       78.63522
H         39.54356       73.85583       77.70073
H         40.15634       75.44612       77.12863
H         40.02105       74.07560       75.97003
N         43.88693       71.31731       78.42798
C         45.30930       71.04558       78.67440
C         45.50810       69.53243       78.80092
O         44.75982       68.93585       79.56284
C         45.75909       71.76747       79.98190
C         45.57370       73.30192       79.82384
C         47.22920       71.42712       80.31228
C         45.90640       74.11062       81.07861
H         43.22380       70.95205       79.12446
H         45.92160       71.46704       77.85979
H         45.12304       71.41247       80.82346
H         44.51277       73.51529       79.58464
H         46.19927       73.67379       78.98218
H         47.54393       71.88527       81.27012
H         47.36757       70.33369       80.44077
H         47.90293       71.77906       79.50295
H         46.97782       74.02531       81.34849
H         45.69947       75.18475       80.88555
H         45.27796       73.77517       81.92999
N         46.46791       68.80134       78.14844
C         47.54116       69.30155       77.29174
C         48.88699       68.82906       77.83102
O         49.08991       67.62744       77.93807
C         47.37617       68.76534       75.85630
C         46.10749       69.24557       75.20740
O         46.15829       69.92788       74.19659
O         44.90858       68.90497       75.71762
H         46.45175       67.77957       78.29837
H         47.55864       70.40220       77.23254
H         47.37971       67.65343       75.85541
H         48.24363       69.11236       75.24939
N         49.87178       69.72385       78.14144
C         51.22737       69.32932       78.53311
C         51.61648       69.88513       79.89777
O         50.97508       70.80954       80.37268
C         52.21103       69.90511       77.48320
C         52.13312       69.19795       76.15601
C         52.57215       67.86660       76.04571
C         51.66564       69.86437       75.01167
C         52.54964       67.21625       74.80915
C         51.63606       69.20632       73.77769
C         52.08126       67.88517       73.67579
H         49.67452       70.73086       78.04069
H         51.30931       68.22441       78.59086
H         53.26814       69.84979       77.80798
H         51.99552       70.99118       77.37048
H         52.94994       67.33813       76.91190
H         51.32630       70.89064       75.07291
H         52.90202       66.19582       74.72888
H         51.27481       69.72305       72.89828
H         52.06737       67.38085       72.71831
N         52.71264       69.39743       80.57240
C         53.49425       68.23761       80.17337
C         52.81951       66.92766       80.56488
O         53.30412       65.89000       80.13971
C         54.81308       68.43939       80.92032
C         54.33197       69.02624       82.23407
C         53.25594       70.01188       81.76926
H         53.71223       68.20901       79.09083
H         55.45897       67.53803       80.99662
H         55.38755       69.23796       80.39660
H         53.83894       68.20302       82.79821
H         55.11858       69.47130       82.87948
H         52.50208       70.15857       82.57166
H         53.70177       70.98786       81.47681
N         51.72495       66.88796       81.38758
C         51.06395       65.63869       81.75554
C         52.05816       64.71139       82.45405
O         52.52354       65.08797       83.52104
C         49.86970       65.88946       82.71049
C         48.74680       66.72685       82.07785
C         47.62678       66.92929       83.05905
O         46.50648       66.51440       82.80909
O         47.85222       67.57905       84.21774
H         51.36058       67.76674       81.77706
H         50.64790       65.19888       80.83756
H         50.23554       66.39539       83.63249
H         49.43730       64.90577       83.00313
H         48.36550       66.20190       81.17482
H         49.11747       67.72626       81.77180
N         52.46916       63.49995       81.96592
C         52.09488       62.88751       80.70349
H         51.41632       63.48287       80.07620
H         53.01327       62.71276       80.10425
H         51.60940       61.90930       80.89855
H         53.13497       62.95822       82.53883
Ca        38.73329       67.66264       80.40422
O         39.33527       66.97451       76.94569
H         38.76418       66.25653       76.57324
H         40.24151       66.77125       76.60319
O         40.98538       65.83283       81.50181
H         41.40666       65.37094       80.73414
H         41.48702       66.68245       81.58455
O         41.60326       68.21094       78.63438
H         42.08303       68.29728       79.49559
H         42.17524       68.68610       77.98045
O         40.76001       69.70717       81.63421
H         40.38939       70.55446       81.28139
H         40.25664       69.54718       82.47167

Ca 1.0



