%chk=apoCaM-CA-Ng.loop1.water1.frame859.chk
%nprocshared=20
%mem=10GB
%nosave
#b3lyp/svp scf=(tight,noincore,xqc) Test 
#IOP(5/87=12) Density=Current Pop=(MK,readradii) iop(6/33=2) iop(6/42=6)

apoCaM-CA-Ng.loop1.water1.frame859 

   0  1 
C         50.27195       53.58903       98.38579
C         49.18545       54.49288       97.89196
O         48.49588       54.12851       96.94889
H         51.25046       54.10663       98.30481
H         50.08023       53.31892       99.44421
H         50.31115       52.65878       97.77819
N         48.97518       55.70600       98.48269
C         47.93569       56.62637       98.02282
C         48.13172       56.98649       96.55377
O         49.19936       56.74266       96.01019
C         47.80270       57.85281       98.95414
C         49.04547       58.69363       99.10766
O         50.07566       58.42653       98.51021
O         49.02415       59.74677       99.94660
H         49.56524       55.96478       99.28826
H         46.97225       56.07214       98.08743
H         47.53122       57.47897       99.96630
H         46.97317       58.49993       98.59802
N         47.06514       57.38458       95.80463
C         47.09621       57.31603       94.34399
C         48.02891       58.29025       93.64981
O         48.22152       58.10795       92.45406
C         45.67726       57.41154       93.74876
C         45.04457       58.80225       93.90283
C         43.62107       58.80438       93.34024
C         42.99208       60.19755       93.44303
N         41.61418       60.18172       92.95493
H         46.16340       57.53434       96.28238
H         47.46088       56.29243       94.09620
H         45.03780       56.64693       94.24282
H         45.72162       57.16220       92.66471
H         45.65754       59.54969       93.35377
H         45.01032       59.09121       94.97468
H         43.00608       58.07750       93.91533
H         43.63883       58.49248       92.27236
H         43.59062       60.91707       92.84018
H         42.99934       60.53411       94.50358
H         41.03615       59.53607       93.54106
H         41.21643       61.14606       93.02216
H         41.58767       59.87072       91.95667
N         48.62267       59.35019       94.27569
C         49.51102       60.24223       93.53684
C         50.71516       59.44256       92.93569
O         51.21842       58.34901       93.66017
C         49.71166       61.63437       94.23315
C         50.16560       61.89802       95.66551
O         50.09392       63.04819       96.06953
O         50.61553       60.96486       96.52311
H         48.42237       59.54081       95.26836
H         48.95745       60.56321       92.62856
H         48.69050       62.08029       94.21742
H         50.33839       62.26277       93.56575
N         51.75745       60.16381       92.19434
C         51.27970       60.86923       90.98807
C         50.16404       60.16053       90.23557
O         50.31140       58.99975       89.88085
H         52.43986       59.43957       91.86729
H         52.14076       60.99952       90.29547
H         50.95616       61.89038       91.27621
N         49.02071       60.84357       89.94113
C         47.86224       60.28496       89.25369
C         47.75288       60.90607       87.87617
O         48.04493       62.08511       87.71941
C         46.60339       60.55790       90.09617
C         45.35543       60.02170       89.45131
O         44.35277       60.86023       89.12659
O         45.24235       58.82809       89.22213
H         48.97026       61.84035       90.20419
H         47.96817       59.18379       89.13045
H         46.49163       61.65398       90.24826
H         46.72004       60.07985       91.09189
N         47.37426       60.14313       86.80853
C         47.42834       60.63183       85.44338
C         48.85846       60.73123       84.94653
O         49.05321       61.21233       83.84094
H         47.06579       59.17143       86.96128
H         46.91320       61.61656       85.38200
H         46.90071       59.92584       84.76761
N         49.90726       60.28715       85.70598
C         51.30300       60.41222       85.31685
C         51.97796       61.38486       86.26340
O         51.34286       61.86559       87.19058
C         52.00204       59.02569       85.28427
C         52.09275       58.33113       86.65483
O         51.37783       58.18383       84.34661
H         49.73481       59.87059       86.62759
H         51.37937       60.85240       84.29860
H         53.04730       59.17494       84.93860
H         50.48054       57.94625       84.69953
H         52.64198       57.37182       86.54912
H         52.64431       58.96673       87.37902
H         51.08748       58.10728       87.06622
N         53.25938       61.77600       86.03202
C         53.90662       62.83186       86.80287
C         54.01545       64.03280       85.88119
O         53.51699       65.09809       86.22308
C         55.28354       62.39180       87.38013
C         55.21364       60.96739       87.99253
C         55.72649       63.43034       88.43527
C         56.54833       60.47776       88.56265
H         53.75493       61.36874       85.22797
H         53.26925       63.11161       87.67133
H         56.02971       62.35812       86.55600
H         54.93467       60.25401       87.18686
H         54.43780       60.91673       88.78647
H         56.73849       63.21351       88.82917
H         55.75689       64.45088       88.00150
H         55.01187       63.43477       89.28954
H         56.44711       59.42110       88.88807
H         57.34611       60.53569       87.79154
H         56.84870       61.07073       89.45012
N         54.54825       63.88343       84.63458
C         54.52991       64.90687       83.60195
C         55.91745       65.04518       83.03238
O         56.47456       64.04105       82.60125
C         53.56284       64.49384       82.46149
C         52.13197       64.24526       82.95639
O         53.55339       65.47117       81.44899
H         54.91649       62.96015       84.35900
H         54.17234       65.87968       84.00875
H         53.91893       63.54158       82.00931
H         53.22378       66.31850       81.85042
H         52.11178       63.41443       83.69232
H         51.71609       65.15930       83.43022
H         51.48649       63.95948       82.09873
N         56.52871       66.25594       82.95882
C         57.86154       66.42037       82.40352
C         58.76517       67.00922       83.46510
O         59.74813       66.37024       83.81008
C         57.80086       67.23421       81.08653
C         59.14875       67.23218       80.35271
O         57.37590       68.55049       81.32526
H         56.02265       67.09233       83.29102
H         58.28257       65.42911       82.11903
H         57.06301       66.72199       80.42419
H         57.05965       68.91447       80.45726
H         59.94709       67.69313       80.96123
H         59.45258       66.19017       80.11642
H         59.06101       67.79194       79.39767
N         58.49120       68.22227       84.03357
C         59.35679       68.83822       85.03122
C         58.59344       69.17563       86.29915
O         57.37556       69.07735       86.34092
C         59.97744       70.12218       84.43208
C         60.81381       69.78821       83.18621
C         61.47800       70.99342       82.51002
C         60.46625       71.97110       81.89066
N         61.15519       73.01592       81.13328
H         57.66346       68.75262       83.72749
H         60.17745       68.14478       85.31581
H         60.63705       70.61485       85.17818
H         59.15864       70.82574       84.16791
H         60.17223       69.29623       82.43355
H         61.61403       69.07777       83.48745
H         62.11013       70.59213       81.68766
H         62.13832       71.52177       83.23083
H         59.84903       72.44144       82.68561
H         59.79008       71.41688       81.20123
H         61.79270       73.55696       81.76110
H         61.70810       72.58748       80.35489
H         60.44756       73.66604       80.72137
N         59.29355       69.61343       87.38183
C         58.68934       70.11307       88.60942
C         57.76916       69.09603       89.28986
O         56.61434       69.44542       89.49149
C         59.79941       70.67426       89.52857
C         59.25826       71.41605       90.75394
C         60.38980       72.05975       91.50576
O         61.37514       71.30379       92.02730
O         60.42863       73.27312       91.63533
H         60.32165       69.64098       87.30220
H         58.06451       70.99249       88.33076
H         60.38171       71.40855       88.92707
H         60.50403       69.88407       89.84655
H         58.72061       70.71434       91.42576
H         58.54872       72.20429       90.41832
N         58.12938       67.83478       89.67028
C         59.42434       67.23070       89.45398
H         60.21233       67.76637       90.01018
H         59.40998       66.18572       89.83318
H         59.65619       67.19555       88.37047
H         57.41226       67.24472       90.12234
Ca        51.23059       59.02168       95.75796
O         51.96514       55.91948       95.78242
H         51.35128       55.54598       95.10107
H         52.65051       55.21711       95.90829

Ca 1.0



