%chk=apoCaM-CA-Ng.loop4.water4.frame571.chk
%nprocshared=20
%mem=10GB
%nosave
#b3lyp/svp scf=(tight,noincore,xqc) Test 
#IOP(5/87=12) Density=Current Pop=(MK,readradii) iop(6/33=2) iop(6/42=6)

apoCaM-CA-Ng.loop4.water4.frame571 

   -3  1 
C         43.68731       12.27105       62.16191
C         43.28750       11.47448       60.95367
O         43.94077       10.48542       60.68365
H         44.71208       12.67320       62.00566
H         42.99959       13.12237       62.34085
H         43.69653       11.61828       63.06031
N         42.22682       11.84510       60.17816
C         41.81153       11.18640       58.93325
C         41.50804        9.70262       59.13240
O         41.79793        8.91907       58.23902
C         42.88203       11.37170       57.81962
C         43.24312       12.80704       57.58726
O         42.49198       13.54532       56.97285
O         44.37638       13.29318       58.12553
H         41.67931       12.66756       60.47332
H         40.87555       11.68240       58.59443
H         42.55092       10.92924       56.85359
H         43.80296       10.83596       58.12001
N         40.93859        9.23142       60.27867
C         40.77541        7.79308       60.52430
C         39.41723        7.29695       60.02972
O         38.55324        8.12907       59.79271
C         40.96889        7.44232       62.03270
C         39.92906        8.15863       62.94068
C         42.40955        7.74627       62.47864
C         39.81504        7.53308       64.32967
H         40.70698        9.90727       61.01825
H         41.56105        7.26193       59.94372
H         40.81841        6.35250       62.13844
H         38.91580        8.08269       62.49385
H         40.17725        9.23613       63.04432
H         43.13091        7.18628       61.84572
H         42.62809        8.83068       62.39251
H         42.58095        7.43732       63.52892
H         40.77725        7.55145       64.87578
H         39.06267        8.09332       64.92383
H         39.46637        6.48363       64.23792
N         39.11251        5.97345       59.83032
C         40.05433        4.85355       59.88483
C         40.24501        4.26027       58.48365
O         41.05214        3.35483       58.33238
C         39.56888        3.75152       60.85783
C         39.13481        4.28318       62.19610
O         38.14772        4.99775       62.27995
O         39.80369        3.94338       63.31365
H         38.14656        5.74964       59.54260
H         41.04829        5.19354       60.22938
H         40.40055        3.02426       61.00094
H         38.70544        3.20125       60.42629
N         39.53506        4.73317       57.41201
C         39.66180        4.28148       56.04072
C         39.32228        2.82680       55.83869
O         38.32229        2.34481       56.35322
H         38.86084        5.49720       57.53478
H         40.68264        4.50318       55.66379
H         38.94729        4.86707       55.42238
N         40.10034        2.09384       54.99638
C         39.85584        0.70365       54.63753
C         40.37165       -0.26049       55.70012
O         40.34438       -1.46027       55.45838
C         40.53124        0.40890       53.27602
C         39.99526        1.29360       52.17598
O         40.75240        1.74681       51.33275
O         38.67785        1.56863       52.09755
H         40.86938        2.58301       54.51430
H         38.76552        0.52606       54.48923
H         40.32629       -0.64244       52.98502
H         41.63516        0.53427       53.34863
N         40.85617        0.17714       56.89928
C         41.40785       -0.71317       57.90036
C         42.88830       -0.94649       57.70220
O         43.44825       -1.70590       58.47886
H         40.84578        1.17515       57.13205
H         40.84955       -1.67432       57.91269
H         41.27854       -0.25053       58.90329
N         43.60480       -0.30960       56.72171
C         45.04007       -0.48891       56.51456
C         45.86464       -0.05630       57.72211
O         47.05409       -0.34427       57.74734
C         45.36842       -1.94433       56.11787
C         44.58348       -2.39309       54.87494
C         44.97783       -3.77243       54.40509
N         44.42335       -4.28179       53.28234
O         45.80248       -4.43256       55.02174
H         43.13078        0.34513       56.08360
H         45.36227        0.14753       55.65927
H         45.17011       -2.64138       56.95842
H         46.45441       -1.99635       55.87715
H         44.77978       -1.67608       54.04918
H         43.49336       -2.39107       55.09538
H         43.73552       -3.73641       52.74252
H         44.69231       -5.21782       52.94512
N         45.32408        0.68619       58.73280
C         46.08953        1.09679       59.90415
C         46.67356        2.47897       59.75290
O         47.58842        2.78594       60.50786
C         45.25121        1.03275       61.22232
C         43.93914        1.85070       61.15865
C         44.93966       -0.40713       61.62782
H         44.36599        1.03930       58.62564
H         46.97422        0.43052       60.01542
H         45.87580        1.46045       62.03911
H         43.22175        1.42494       60.42578
H         43.42859        1.83561       62.14495
H         44.13405        2.91038       60.89129
H         45.88322       -0.98460       61.72164
H         44.43572       -0.41361       62.61925
H         44.27913       -0.89639       60.88503
N         46.15836        3.40704       58.89768
C         46.58689        4.79391       59.00177
C         47.91173        5.02792       58.28730
O         48.39404        4.14614       57.58799
C         45.47582        5.73034       58.49276
C         45.46403        7.09763       59.13146
N         44.58500        8.00879       58.68901
O         46.19125        7.38222       60.07235
H         45.33251        3.17025       58.32757
H         46.70406        4.99727       60.08888
H         44.48301        5.30606       58.75572
H         45.53450        5.80092       57.38391
H         43.94486        7.78486       57.91761
H         44.55954        8.93464       59.11807
N         48.56082        6.21220       58.44310
C         49.85966        6.51867       57.86575
C         50.64003        7.43658       58.78712
O         50.06986        7.99058       59.71734
C         49.67192        7.10164       56.45225
C         48.88034        8.39634       56.43556
C         47.53149        8.40130       56.03626
C         49.48877        9.61415       56.78894
C         46.81005        9.59946       55.98434
C         48.76909       10.81126       56.72269
C         47.43152       10.81132       56.31657
O         46.76001       11.97848       56.23861
H         48.14770        6.90244       59.06785
H         50.44676        5.57437       57.80885
H         49.12892        6.33286       55.86060
H         50.64618        7.26286       55.94199
H         47.03538        7.47734       55.76804
H         50.52738        9.64520       57.09133
H         45.77203        9.58609       55.67589
H         49.25811       11.74149       56.97566
H         45.84628       12.02717       55.92274
N         51.97667        7.60575       58.61864
C         52.77145        8.34695       59.58552
C         52.93657        9.79171       59.12774
O         53.64462        9.98621       58.14923
C         54.15946        7.67685       59.70647
C         55.01155        8.25788       60.84125
C         56.39076        7.66554       60.80469
O         57.11796        7.86797       59.84440
O         56.83493        6.91259       61.82808
H         52.45039        7.06558       57.87730
H         52.30839        8.25197       60.58968
H         54.69141        7.78314       58.73395
H         54.03381        6.58818       59.89902
H         54.52003        8.02085       61.81040
H         55.10281        9.36107       60.75216
N         52.38978       10.88399       59.74299
C         51.35377       10.89452       60.77528
C         51.85313       11.42715       62.09679
O         52.91396       12.03196       62.16056
C         50.12527       11.72684       60.29201
C         50.46969       13.15396       59.77987
C         49.25132       13.84678       59.24385
O         49.17642       14.11472       58.05439
O         48.20870       14.12285       60.04247
H         52.72333       11.79412       59.40163
H         51.00491        9.87017       60.98459
H         49.37708       11.80109       61.11390
H         49.64444       11.17612       59.45740
H         51.16878       13.08430       58.92374
H         50.94093       13.76776       60.57618
N         51.11711       11.18071       63.21994
C         51.46831       11.65159       64.54172
H         52.34238       12.33368       64.52560
H         50.60175       12.19942       64.96870
H         51.69566       10.78373       65.19655
H         50.26517       10.60264       63.14300
Ca        46.23706       14.26094       58.96393
O         44.19639       16.20722       58.24944
H         43.43787       15.68208       57.89704
H         44.08335       17.09892       57.83898
O         46.81708       17.12681       59.39815
H         46.29806       17.84856       59.83348
H         47.59212       16.97877       59.99589
O         46.78771       15.50982       56.24984
H         46.51071       16.45831       56.31343
H         46.12704       15.09761       55.63835
O         46.65080       11.65069       59.84245
H         46.75297       10.69408       60.06364
H         45.70649       11.74081       59.56816

Ca 1.0



