%chk=apoCaM-CA-Ng.loop1.water4.frame517.chk
%nprocshared=20
%mem=10GB
%nosave
#b3lyp/svp scf=(tight,noincore,xqc) Test 
#IOP(5/87=12) Density=Current Pop=(MK,readradii) iop(6/33=2) iop(6/42=6)

apoCaM-CA-Ng.loop1.water4.frame517 

   0  1 
C         90.49287      101.21877       37.59269
C         90.88106      102.28547       36.60613
O         92.03914      102.34072       36.22153
H         89.40867      101.26046       37.83324
H         90.71588      100.21767       37.16880
H         91.06374      101.35214       38.53535
N         89.95000      103.17741       36.16248
C         90.18568      104.26089       35.20885
C         90.45067      103.73375       33.80192
O         90.74322      102.55715       33.63707
C         91.25855      105.24408       35.72833
C         91.34519      106.50573       34.91843
O         92.49618      106.83675       34.30323
O         90.37913      107.24753       34.83161
H         88.99125      103.09779       36.53656
H         89.21778      104.80914       35.14763
H         92.25222      104.75071       35.73916
H         91.00442      105.53447       36.77096
N         90.19820      104.53936       32.72356
C         90.19569      104.11432       31.32158
C         89.09190      103.11069       30.99387
O         88.94378      102.79178       29.82150
C         91.58436      103.62868       30.85349
C         92.58729      104.78959       30.83906
C         93.96033      104.34422       30.31912
C         94.90392      105.53021       30.05029
N         95.16540      106.33239       31.24583
H         89.91913      105.51492       32.89775
H         89.93412      105.00282       30.70283
H         91.50002      103.26062       29.80669
H         91.94940      102.78672       31.47747
H         92.68931      105.21207       31.86082
H         92.18912      105.57568       30.15983
H         93.82954      103.81409       29.34997
H         94.41992      103.63629       31.04285
H         94.46419      106.17990       29.26044
H         95.86587      105.12866       29.66181
H         95.55929      105.73287       32.00596
H         95.85792      107.07776       31.00467
H         94.29103      106.80216       31.57251
N         88.25174      102.60619       31.94270
C         87.13024      101.73110       31.65972
C         85.89248      102.37016       32.29279
O         85.90195      102.50010       33.51035
C         87.42851      100.34886       32.27809
C         86.27716       99.43218       32.05957
O         85.62743       99.02500       33.00666
O         85.88883       99.14203       30.81141
H         88.36963      102.85603       32.92907
H         87.01728      101.58733       30.57068
H         87.61602      100.45816       33.36948
H         88.33627       99.90864       31.81181
N         84.80756      102.85395       31.61570
C         84.56443      102.86332       30.18098
C         83.19147      102.30035       29.88590
O         82.23177      102.77260       30.48117
H         84.08719      103.32256       32.18709
H         85.34005      102.34813       29.59068
H         84.55110      103.92590       29.85652
N         82.99732      101.33513       28.93875
C         81.65577      100.83705       28.61895
C         81.09610       99.86917       29.70571
O         81.83133       99.95379       30.88062
C         81.60870      100.18460       27.21655
C         82.49015       98.97726       27.00620
O         82.50118       98.43067       25.91534
O         83.27637       98.49507       27.98286
H         83.80746      101.02169       28.38366
H         80.98694      101.72495       28.54344
H         81.91238      100.95142       26.47098
H         80.56060       99.88916       26.99585
N         79.67509      100.14710       30.00491
C         79.06236       99.07390       30.81113
C         79.48534       99.03559       32.27503
O         79.18030       98.04741       32.92349
H         79.16078      100.16556       29.09347
H         79.30717       98.09766       30.34053
H         77.95489       99.16893       30.78713
N         80.16491      100.05413       32.87972
C         80.69590       99.95991       34.24276
C         81.81117       98.90918       34.33919
O         82.17694       98.31110       33.33623
C         81.22471      101.34822       34.71958
C         82.48743      101.80448       33.97840
O         80.22807      102.32398       34.55842
H         80.29674      100.93176       32.35747
H         79.86319       99.67650       34.92323
H         81.50647      101.30303       35.79558
H         79.53521      102.14372       35.24578
H         83.32612      101.09459       34.14165
H         82.30097      101.88683       32.89259
H         82.80852      102.79687       34.36020
N         82.44195       98.68821       35.52931
C         83.61511       97.82195       35.67869
C         83.33649       96.33294       35.47586
O         84.28952       95.56936       35.53249
C         84.34281       98.07134       37.04118
C         83.44244       97.75635       38.26731
C         84.90382       99.50876       37.07744
C         84.18728       97.82741       39.60218
H         82.12403       99.23763       36.33689
H         84.34457       98.10048       34.89237
H         85.22349       97.39114       37.07781
H         83.04596       96.72353       38.16888
H         82.58035       98.45213       38.31941
H         85.56455       99.67950       36.19974
H         84.09248      100.26518       37.05777
H         85.52685       99.67853       37.97769
H         85.03756       97.11333       39.60695
H         84.56261       98.85026       39.80702
H         83.49247       97.55722       40.42513
N         82.08758       95.84009       35.23021
C         81.81215       94.41602       35.05522
C         80.87635       93.95269       36.14810
O         79.81374       94.52679       36.32879
C         81.26307       94.07296       33.64842
C         80.07698       94.91847       33.19695
O         82.29430       94.21711       32.70473
H         81.28738       96.48401       35.19293
H         82.74492       93.81711       35.14015
H         80.93244       93.00423       33.68448
H         82.38023       93.35558       32.21677
H         79.72921       94.56709       32.20274
H         79.22884       94.85489       33.90599
H         80.40559       95.96845       33.09149
N         81.24145       92.89200       36.91915
C         80.44445       92.34094       38.00649
C         81.24411       91.22641       38.65721
O         81.50743       91.31044       39.84914
C         79.04352       91.84673       37.52900
C         78.20149       91.31623       38.69745
O         79.16976       90.85608       36.54213
H         82.15478       92.45449       36.72212
H         80.27580       93.14145       38.76186
H         78.48999       92.71281       37.10712
H         78.30914       90.82578       36.04723
H         77.19271       91.02493       38.33447
H         78.67640       90.42716       39.16274
H         78.07701       92.10668       39.46845
N         81.67057       90.15588       37.92237
C         82.39329       89.03194       38.49581
C         83.72522       88.81235       37.78892
O         83.93290       89.32907       36.69852
C         81.44383       87.82279       38.41972
C         81.92804       86.54904       39.11543
C         80.76333       85.54596       39.19371
C         81.13291       84.20753       39.84687
N         81.57447       84.36294       41.23398
H         81.43859       90.10855       36.91844
H         82.61401       89.23742       39.56548
H         81.19197       87.59593       37.35882
H         80.50832       88.14474       38.93040
H         82.25331       86.81061       40.14321
H         82.78172       86.11044       38.55478
H         80.39516       85.33523       38.16565
H         79.92773       86.00258       39.77069
H         81.92448       83.70308       39.25176
H         80.22494       83.56346       39.83114
H         80.84501       84.85968       41.79519
H         81.73096       83.41506       41.64583
H         82.47574       84.88759       41.27831
N         84.70006       88.08011       38.39985
C         86.00549       87.80566       37.81037
C         86.75433       89.09125       37.45536
O         87.11619       89.22447       36.29479
C         86.90938       86.86948       38.67088
C         86.34718       85.44951       38.90060
C         85.39945       85.28705       40.06360
O         85.19587       86.27355       40.95838
O         84.88303       84.19882       40.25732
H         84.48949       87.71633       39.33009
H         85.83481       87.24916       36.85988
H         87.23609       87.29788       39.63488
H         87.83150       86.73126       38.06228
H         87.19793       84.77239       39.13251
H         85.88153       85.08966       37.95819
N         87.03501       90.09788       38.33563
C         86.62170       90.13770       39.72171
H         85.51651       90.10049       39.79619
H         87.07832       89.31925       40.30340
H         86.95861       91.09204       40.18005
H         87.55462       90.91722       37.98213
Ca        83.71730       98.77015       30.64632
O         83.89247       95.64853       28.94090
H         83.64244       94.69622       29.04305
H         84.64262       95.64001       28.29561
O         81.38900       96.47247       30.37747
H         81.29861       95.48940       30.30737
H         81.19518       96.80278       29.46429
O         84.83274       95.99993       32.13140
H         84.11165       96.00260       32.80788
H         85.64686       95.76245       32.64182
O         86.71578       97.04981       29.15075
H         87.55765       96.71997       29.55293
H         86.95194       97.92938       28.76183

Ca 1.0



