%chk=apoCaM-CA-Ng.loop4.water4.frame128.chk
%nprocshared=20
%mem=10GB
%nosave
#b3lyp/svp scf=(tight,noincore,xqc) Test 
#IOP(5/87=12) Density=Current Pop=(MK,readradii) iop(6/33=2) iop(6/42=6)

apoCaM-CA-Ng.loop4.water4.frame128 

   -3  1 
C         54.63811       62.69995       22.88594
C         55.54599       62.96342       24.05309
O         56.54156       62.27640       24.16910
H         53.77312       63.39568       22.87335
H         55.20972       62.84681       21.94304
H         54.26333       61.65719       22.92267
N         55.25923       63.95615       24.94248
C         56.10898       64.45308       26.03184
C         57.30509       65.29839       25.50633
O         58.49967       64.57980       25.34956
C         56.38518       63.43718       27.17221
C         57.15395       62.18790       26.82942
O         58.31579       62.24139       26.46369
O         56.56369       60.98495       26.96749
H         54.37404       64.46773       24.80222
H         55.49964       65.23971       26.53237
H         55.39507       63.12038       27.56511
H         56.92172       63.95806       27.99453
N         56.88478       66.08194       24.32252
C         57.67455       67.21256       23.77394
C         58.47631       68.00219       24.80262
O         58.16264       69.16527       25.01756
C         58.50113       66.78757       22.53212
C         59.11431       68.00391       21.77768
C         57.65252       65.94486       21.55521
C         58.10525       69.03656       21.24604
H         55.95032       66.48896       24.56686
H         56.91437       67.91539       23.36487
H         59.33433       66.14162       22.86866
H         59.67991       67.60975       20.91251
H         59.83378       68.53901       22.43132
H         58.26236       65.63970       20.67759
H         57.28945       65.01935       22.04397
H         56.76140       66.49819       21.19869
H         57.34944       68.57160       20.58459
H         57.58206       69.55903       22.07110
H         58.64150       69.80853       20.65522
N         59.52854       67.45082       25.46762
C         60.31328       68.17927       26.45304
C         61.15299       69.27045       25.77740
O         60.98307       70.41929       26.15959
C         61.12978       67.20644       27.34589
C         60.26068       66.25197       28.13568
O         60.84161       65.35651       28.95605
O         59.04238       66.27424       28.04675
H         59.78447       66.47657       25.27956
H         59.61760       68.67657       27.16837
H         61.72511       67.79727       28.07418
H         61.81899       66.58240       26.75986
N         62.05310       69.05273       24.76596
C         62.35137       67.74109       24.21314
C         63.39720       67.73269       23.11454
O         63.83275       68.79711       22.69980
H         62.54698       69.87730       24.39185
H         61.42916       67.29275       23.80212
H         62.76400       67.16311       25.02661
N         63.88298       66.57415       22.56286
C         63.53546       65.19601       22.92462
C         62.06272       64.91444       22.67393
O         61.33038       64.71821       23.63281
C         63.98112       64.79956       24.35782
C         65.40107       65.19736       24.63661
O         66.31117       64.77067       23.94481
O         65.67347       66.03488       25.65598
H         64.58406       66.67343       21.81149
H         64.12964       64.51254       22.28219
H         63.88022       63.69794       24.47152
H         63.33825       65.22435       25.14076
N         61.52576       64.83880       21.42234
C         62.28938       64.85650       20.19127
C         62.51505       66.24179       19.66393
O         62.00549       67.20902       20.20980
H         60.52857       64.62309       21.34125
H         61.71708       64.31579       19.40594
H         63.23674       64.29567       20.31118
N         63.29216       66.39828       18.56177
C         63.51051       67.68871       17.92500
C         62.26394       68.13764       17.16982
O         62.13440       69.32276       16.89569
C         64.71361       67.56588       16.97092
C         65.15200       68.89130       16.33272
C         66.38341       68.72850       15.47253
N         66.91232       69.80358       14.84751
O         66.91183       67.63370       15.33487
H         63.75488       65.56082       18.17323
H         63.77196       68.42445       18.71916
H         64.47735       66.82638       16.17276
H         65.56956       67.17892       17.56851
H         65.37777       69.62335       17.13830
H         64.33818       69.29419       15.69549
H         66.48363       70.73462       14.95145
H         67.75346       69.70403       14.26027
N         61.33481       67.22892       16.74998
C         60.15774       67.56595       15.95625
C         60.19034       66.90399       14.58347
O         59.27195       67.16148       13.81846
C         58.85064       67.20792       16.71837
C         58.64354       68.14985       17.90468
C         58.81962       65.75302       17.20265
H         61.48232       66.23374       16.96938
H         60.12738       68.65764       15.74307
H         57.98472       67.36426       16.03702
H         57.68768       67.90261       18.41133
H         59.48015       68.06413       18.62655
H         58.58067       69.20087       17.55087
H         57.84445       65.54091       17.69000
H         58.95688       65.05096       16.35391
H         59.61209       65.57361       17.95790
N         61.21039       66.08500       14.17477
C         61.28019       65.54599       12.81808
C         61.23544       64.02646       12.77213
O         61.10140       63.50877       11.66987
C         62.58991       66.02207       12.15017
C         62.73287       67.52380       12.14746
N         61.85803       68.30463       11.47364
O         63.65935       68.04012       12.75545
H         61.99149       65.87452       14.80968
H         60.41649       65.90389       12.21779
H         62.64775       65.65591       11.10195
H         63.44712       65.58504       12.71109
H         61.07796       67.88876       10.94540
H         61.96742       69.32977       11.47353
N         61.42582       63.23951       13.87479
C         61.57910       61.79051       13.77693
C         60.85254       61.04541       14.88767
O         61.08700       61.33424       16.05158
C         63.08095       61.43053       13.84976
C         63.87938       62.03030       12.71053
C         63.58674       61.69458       11.37518
C         64.93153       62.92445       12.97204
C         64.32282       62.25197       10.32552
C         65.66991       63.47684       11.91994
C         65.36562       63.14360       10.59230
O         66.06754       63.66981        9.56816
H         61.62783       63.67775       14.78473
H         61.21066       61.41581       12.79827
H         63.19724       60.32515       13.79929
H         63.48889       61.76918       14.82796
H         62.78724       61.00337       11.14191
H         65.18256       63.19578       13.98947
H         64.08263       61.98871        9.30271
H         66.47787       64.16373       12.13781
H         66.79898       64.28794        9.70831
N         60.03244       59.99684       14.57554
C         59.51712       58.97722       15.49808
C         58.60391       59.45304       16.61742
O         58.21708       58.62335       17.43000
C         60.63914       58.03992       16.02024
C         61.58621       58.61008       17.08770
C         62.52167       57.54569       17.58008
O         63.30589       57.01270       16.81102
O         62.50631       57.17972       18.87586
H         59.83487       59.82796       13.57693
H         58.88538       58.29609       14.88321
H         61.22819       57.67050       15.15209
H         60.13554       57.15730       16.47539
H         60.98982       58.99005       17.94609
H         62.21335       59.42181       16.68258
N         58.14263       60.72740       16.68987
C         57.20615       61.17015       17.71757
C         55.79380       61.25505       17.16461
O         54.90589       61.64707       17.91031
C         57.65794       62.53971       18.22979
C         59.01790       62.51525       18.93316
C         58.89465       62.01580       20.33734
O         58.95464       62.95988       21.28371
O         58.65799       60.85004       20.60992
H         58.38665       61.39460       15.94329
H         57.15472       60.45395       18.56627
H         56.91047       62.98432       18.92730
H         57.72081       63.20528       17.34635
H         59.32433       63.57728       19.02207
H         59.81445       61.99671       18.36192
N         55.49525       60.86652       15.88987
C         54.15661       60.89389       15.34182
H         53.40961       61.28891       16.06116
H         54.14810       61.53286       14.43522
H         53.86065       59.86163       15.06001
H         56.23191       60.51118       15.26509
Ca        58.75237       63.38391       23.45064
O         61.31686       63.21783       26.30035
H         61.64586       64.12627       26.50976
H         61.07833       62.83332       27.18080
O         61.98564       61.65459       22.98951
H         62.93275       61.48077       23.22054
H         61.90583       61.38002       22.04165
O         58.74441       59.66544       23.85027
H         59.24546       58.91001       23.45181
H         58.89805       60.41989       23.22853
O         60.97312       60.39993       25.66230
H         60.52734       60.10129       26.49438
H         61.70238       59.74620       25.51924

Ca 1.0



