%chk=apoCaM-CA-Ng.loop2.water2.frame811.chk
%nprocshared=20
%mem=10GB
%nosave
#b3lyp/svp scf=(tight,noincore,xqc) Test 
#IOP(5/87=12) Density=Current Pop=(MK,readradii) iop(6/33=2) iop(6/42=6)

apoCaM-CA-Ng.loop2.water2.frame811 

   -2  1 
C         99.18258       84.33529       82.19747
C         99.77909       85.55408       82.83461
O        100.71937       85.40726       83.60278
H         98.34133       84.59855       81.52342
H         99.96341       83.81826       81.59886
H         98.81386       83.64552       82.98407
N         99.31477       86.80016       82.52790
C         99.92626       88.01740       83.05005
C        100.78759       88.68405       81.99440
O        101.51550       89.60198       82.34853
C         98.85464       89.01244       83.54282
C         97.99033       88.49458       84.65961
O         98.17511       87.26534       85.17849
O         97.10660       89.20676       85.10883
H         98.55096       86.89079       81.83979
H        100.61219       87.76836       83.89000
H         98.19891       89.28436       82.68552
H         99.35344       89.93898       83.90330
N        100.76386       88.29930       80.68229
C        101.63398       88.91563       79.68753
C        101.18514       88.61626       78.25809
O        100.31254       87.78061       78.06774
C        103.06328       88.38817       79.90838
H        100.09466       87.57978       80.38270
H        101.55961       90.01570       79.82258
H        103.41686       88.60562       80.93606
H        103.07486       87.28438       79.76636
H        103.79374       88.82614       79.20874
N        101.69650       89.26390       77.16891
C        102.66204       90.36332       77.19385
C        102.04920       91.62110       76.59353
O        100.94749       91.57304       76.06444
C        103.98552       89.96980       76.49215
C        103.79377       89.41369       75.11057
O        103.22895       88.34284       74.95357
O        104.27055       90.05950       74.03588
H        101.32028       88.98663       76.25040
H        102.91897       90.64096       78.23248
H        104.51247       89.19125       77.08156
H        104.65195       90.85815       76.45438
N        102.68837       92.81594       76.74037
C        102.11527       94.09058       76.34197
C        103.16318       94.98392       75.72033
O        103.53097       95.95452       76.36738
H        103.57022       92.83865       77.27591
H        101.78117       94.58787       77.27921
H        101.21588       93.98864       75.70111
N        103.73248       94.76879       74.50141
C        103.36284       93.72501       73.55202
C        101.94724       93.98398       73.04653
O        101.68728       95.07824       72.56474
C        104.38138       93.75653       72.38163
C        104.24817       92.65355       71.36650
N        105.09132       92.61188       70.30990
O        103.39850       91.79077       71.49191
H        104.48010       95.42641       74.22425
H        103.44819       92.73137       74.04386
H        105.40515       93.66792       72.80709
H        104.30580       94.73299       71.85554
H        105.82349       93.32672       70.19323
H        105.01391       91.86865       69.60292
N        100.98446       93.02081       73.12223
C         99.59572       93.22810       72.72123
C         99.19836       92.42903       71.49299
O         98.03766       92.49033       71.11406
H        101.24527       92.09303       73.48275
H         99.39792       94.29616       72.48593
H         98.94424       92.94980       73.57686
N        100.11442       91.71496       70.78221
C         99.84165       91.01829       69.52920
C        100.23741       89.55114       69.65047
O        100.64045       89.12887       70.72493
C        100.61900       91.73577       68.39150
C        100.10988       93.16945       68.20119
O        101.99530       91.77867       68.67068
H        101.08582       91.70418       71.10239
H         98.75989       91.05026       69.27135
H        100.44911       91.22810       67.41626
H        102.36139       90.87988       68.46586
H        100.65751       93.65967       67.36891
H         99.02701       93.16147       67.95017
H        100.25946       93.77462       69.12046
N        100.16682       88.71633       68.57213
C        100.54039       87.30534       68.61832
C        101.81298       87.11927       67.82011
O        101.81341       87.42286       66.63424
C         99.39092       86.42374       68.04492
C         99.75467       84.91365       67.97284
C         98.08174       86.64119       68.82152
C        100.05643       84.25824       69.32073
H         99.86211       89.09734       67.66414
H        100.73507       86.99561       69.66512
H         99.19961       86.74765       66.99660
H        100.64337       84.77847       67.31888
H         98.91501       84.36270       67.49655
H         97.26980       86.02584       68.37820
H         98.19768       86.37488       69.89180
H         97.76674       87.70416       68.76191
H        100.92361       84.74832       69.79710
H         99.18154       84.30675       69.99974
H        100.31059       83.18934       69.16346
N        102.94122       86.62379       68.41361
C        104.20127       86.45353       67.69705
C        104.65217       85.00191       67.62191
O        105.56410       84.74177       66.84822
C        105.29108       87.32199       68.34419
C        104.89603       88.76978       68.35091
O        104.69319       89.36389       67.30414
O        104.76028       89.41731       69.51849
H        102.91375       86.38413       69.41547
H        104.07789       86.78312       66.64169
H        106.24834       87.22139       67.78922
H        105.45506       86.98116       69.39115
N        104.08971       83.99865       68.36485
C        104.44782       82.59648       68.15730
C        103.91072       81.69567       69.27725
O        102.70205       81.68123       69.46761
C        103.85053       82.13644       66.80074
C        103.93233       80.64076       66.59503
C        102.74633       79.88710       66.52276
C        105.16855       79.98256       66.50165
C        102.79706       78.50025       66.37470
C        105.21519       78.59150       66.35732
C        104.03062       77.85138       66.29645
H        103.38047       84.22318       69.07554
H        105.54749       82.52114       68.12337
H        104.33892       82.66213       65.95332
H        102.77850       82.43642       66.79529
H        101.77953       80.37081       66.59341
H        106.09260       80.54276       66.54864
H        101.87829       77.92985       66.32747
H        106.16961       78.08561       66.29706
H        104.06682       76.77535       66.18869
N        104.72178       80.85539       70.01525
C        104.21390       79.84550       70.94632
C        103.45655       80.36159       72.15670
O        102.98324       79.54569       72.93608
C        105.47189       79.10681       71.41866
C        106.37061       79.22231       70.21195
C        106.15111       80.67695       69.82076
H        103.56236       79.16284       70.35532
H        105.96414       79.69102       72.23144
H        105.28973       78.07366       71.78424
H        107.43261       78.94925       70.38757
H        105.95691       78.57176       69.40674
H        106.69173       81.35964       70.51398
H        106.51797       80.79599       68.78769
N        103.31494       81.69368       72.39513
C        102.61028       82.24062       73.55207
C        101.13152       81.86291       73.61774
O        100.50433       82.19046       74.61644
C        102.75832       83.77861       73.56128
C        102.06149       84.43287       72.35224
C        102.36084       85.89176       72.28007
O        103.51164       86.27061       72.13989
O        101.36104       86.78759       72.32583
H        103.78038       82.34931       71.75644
H        103.10728       81.83887       74.46309
H        103.84588       84.01443       73.54150
H        102.33757       84.20396       74.49896
H        100.96303       84.27793       72.42191
H        102.41100       83.98681       71.40174
N        100.49355       81.20062       72.60998
C         99.09214       80.85251       72.69406
H         98.47875       81.77275       72.79609
H         98.77913       80.31550       71.77356
H         98.91753       80.18972       73.56846
H        100.99292       80.93889       71.75000
Ca       103.77096       89.08717       72.07004
O        106.27715       87.31570       72.58580
H        106.67917       88.21497       72.68548
H        106.15629       86.99284       73.51411
O        100.76641       89.39172       73.61466
H        100.32094       88.53917       73.84490
H        100.18892       90.07946       74.02689

Ca 1.0



