%chk=apoCaM-CA-Ng.loop4.water3.frame402.chk
%nprocshared=20
%mem=10GB
%nosave
#b3lyp/svp scf=(tight,noincore,xqc) Test 
#IOP(5/87=12) Density=Current Pop=(MK,readradii) iop(6/33=2) iop(6/42=6)

apoCaM-CA-Ng.loop4.water3.frame402 

   -3  1 
C        108.95992       85.17578       13.59339
C        110.45091       85.25170       13.69059
O        111.05530       85.70131       12.73903
H        108.49959       85.79966       14.38542
H        108.62099       85.55853       12.60325
H        108.63118       84.12224       13.69322
N        111.11278       84.86262       14.82019
C        112.56651       84.92888       14.98533
C        113.15229       86.29077       14.62805
O        113.99177       86.37472       13.75014
C        113.32981       83.67717       14.43915
C        112.82070       82.94181       13.21439
O        112.67376       83.49265       11.99552
O        112.48897       81.77334       13.34481
H        110.55120       84.55016       15.62619
H        112.78476       84.86677       16.07672
H        113.26955       82.91637       15.25271
H        114.41098       83.90647       14.34817
N        112.76833       87.38695       15.35264
C        113.29117       88.76033       15.28385
C        114.73393       88.85075       15.80033
O        114.93119       89.40104       16.87497
C        113.09905       89.43905       13.89678
C        113.48713       90.94781       13.91514
C        111.66473       89.26482       13.36944
C        112.63500       91.84079       14.82795
H        112.03475       87.23100       16.06211
H        112.66975       89.33014       16.00851
H        113.76952       88.93583       13.17142
H        113.40854       91.34576       12.88017
H        114.54164       91.06070       14.23559
H        111.56237       89.74665       12.37311
H        111.42601       88.19181       13.24437
H        110.91884       89.70070       14.06470
H        111.56768       91.82550       14.52859
H        112.72553       91.54116       15.89138
H        112.99073       92.88942       14.74785
N        115.78695       88.32975       15.10734
C        117.15104       88.27476       15.62290
C        117.93687       89.57245       15.41342
O        118.51628       90.03465       16.38560
C        117.91989       87.06246       15.03271
C        117.28626       85.73173       15.35804
O        117.81414       84.70536       14.96163
O        116.15465       85.65029       16.08598
H        115.61460       87.87745       14.20644
H        117.12084       88.05934       16.71629
H        118.94901       87.05419       15.45327
H        118.00989       87.12581       13.93524
N        118.08739       90.20721       14.20959
C        117.33720       89.86457       13.01627
C        117.77131       90.63508       11.78102
O        118.05023       91.81887       11.90866
H        118.73362       91.01101       14.16932
H        116.27300       90.09890       13.19969
H        117.40326       88.80385       12.83783
N        117.73479       90.10652       10.51270
C        117.31344       88.75286       10.14294
C        115.92867       88.46388       10.71513
O        115.79401       87.56812       11.53665
C        118.39188       87.70438       10.51131
C        119.69562       88.01339        9.82923
O        119.75917       88.05753        8.61068
O        120.80209       88.24231       10.56167
H        117.96402       90.74051        9.73066
H        117.23941       88.68585        9.03645
H        118.05156       86.69955       10.18011
H        118.58130       87.64492       11.59518
N        114.83216       89.19338       10.36331
C        114.78894       90.10920        9.24201
C        115.08517       91.51650        9.63476
O        115.30667       91.80370       10.80228
H        113.94113       89.00135       10.83835
H        113.76791       90.10444        8.81391
H        115.45033       89.77036        8.42088
N        115.05890       92.47029        8.67139
C        115.28082       93.87856        8.93788
C        113.97253       94.65739        8.85749
O        113.97453       95.81234        9.25659
C        116.46053       94.41796        8.09124
C        116.41757       94.10240        6.58516
C        115.22347       94.68183        5.89684
N        115.04173       96.01787        5.84171
O        114.41799       93.93559        5.36507
H        114.81705       92.18016        7.71107
H        115.58811       94.01618        9.99855
H        117.38629       93.92966        8.46908
H        116.57257       95.50944        8.26362
H        116.43909       93.00125        6.43624
H        117.33325       94.50391        6.10063
H        115.71746       96.66363        6.27436
H        114.22870       96.40359        5.34922
N        112.79764       94.06166        8.47644
C        111.48282       94.65188        8.73199
C        110.72034       95.00972        7.46965
O        109.60774       95.50817        7.60264
C        110.63402       93.67769        9.61186
C        111.36265       93.31094       10.91480
C        110.22958       92.38752        8.86949
H        112.80985       93.11412        8.08168
H        111.59913       95.59983        9.30118
H        109.69263       94.20236        9.88956
H        112.29732       92.74744       10.70383
H        111.61608       94.22702       11.48734
H        110.71309       92.67058       11.54993
H        111.11002       91.77669        8.58531
H        109.57881       91.76991        9.52339
H        109.65010       92.62020        7.95131
N        111.22578       94.80299        6.22246
C        110.48904       95.11613        5.00797
C        110.30041       93.89795        4.11438
O        109.68434       94.06804        3.07513
C        111.21076       96.23468        4.22441
C        111.31854       97.51986        5.01392
N        110.21234       98.16434        5.45260
O        112.41757       97.99772        5.24433
H        112.17395       94.42115        6.11982
H        109.46549       95.47842        5.24692
H        110.64353       96.46351        3.29619
H        112.22343       95.88095        3.92806
H        109.27038       97.79507        5.26298
H        110.30010       99.04353        5.98390
N        110.76168       92.64254        4.43617
C        110.57483       91.51697        3.51643
C        110.88215       90.14772        4.11705
O        111.62791       90.02750        5.07520
C        111.37769       91.73502        2.20267
C        112.83325       92.11855        2.42924
C        113.27586       93.40319        2.05545
C        113.75944       91.22758        3.00241
C        114.60398       93.78935        2.25672
C        115.09011       91.61690        3.20279
C        115.51676       92.89669        2.83287
O        116.79859       93.26017        3.04356
H        111.22507       92.47876        5.33827
H        109.48902       91.47098        3.27863
H        110.88986       92.55763        1.64264
H        111.30854       90.84534        1.54117
H        112.59108       94.11585        1.61294
H        113.46422       90.23087        3.29267
H        114.92040       94.78467        1.96942
H        115.79157       90.92360        3.64985
H        117.12773       94.14239        2.81785
N        110.27628       89.05594        3.55083
C        110.48060       87.65131        3.90185
C        110.08124       87.25302        5.31765
O        110.23506       86.07820        5.62522
C        111.91600       87.19167        3.57418
C        112.24532       87.39885        2.08737
C        113.55443       86.75774        1.73301
O        114.47453       87.43118        1.29912
O        113.70835       85.42554        1.86677
H        109.62735       89.22540        2.76798
H        109.81476       87.04735        3.24291
H        111.97841       86.10064        3.78667
H        112.66204       87.71264        4.21156
H        112.27445       88.48622        1.86086
H        111.45978       86.93022        1.45510
N        109.51861       88.11422        6.21518
C        109.11777       87.69398        7.55716
C        107.60841       87.73944        7.73370
O        107.14206       87.36845        8.80299
C        109.80812       88.58285        8.61104
C        111.34332       88.63294        8.49234
C        112.01695       87.32319        8.79485
O        111.76911       86.31796        8.15369
O        112.89161       87.26996        9.81033
H        109.34112       89.09255        5.94949
H        109.40006       86.63787        7.74421
H        109.53086       88.24687        9.63614
H        109.42741       89.61711        8.47913
H        111.69188       89.37699        9.24036
H        111.64284       88.98713        7.48745
N        106.77137       88.15320        6.73904
C        105.33543       88.16308        6.90603
H        104.97188       87.13152        7.10052
H        105.05578       88.82351        7.75374
H        104.85065       88.54223        5.98149
H        107.14222       88.46688        5.83165
Ca       113.06787       85.54028       11.19487
O        115.43757       85.12275        9.02863
H        115.66714       84.25045        8.61991
H        116.05536       85.76827        8.60217
O        111.67054       83.71107        9.20621
H        111.62593       82.73012        9.32405
H        112.55792       83.87141        8.79627
O        116.11496       83.97078       11.86940
H        116.16417       84.32780       12.79055
H        116.91411       84.34417       11.42014

Ca 1.0



