%chk=apoCaM-CA-Ng.loop4.water2.frame435.chk
%nprocshared=20
%mem=10GB
%nosave
#b3lyp/svp scf=(tight,noincore,xqc) Test 
#IOP(5/87=12) Density=Current Pop=(MK,readradii) iop(6/33=2) iop(6/42=6)

apoCaM-CA-Ng.loop4.water2.frame435 

   -3  1 
C         81.91344       77.93723       91.28265
C         80.90009       77.35935       92.22115
O         80.84815       76.15041       92.31594
H         82.92689       77.59878       91.58840
H         81.71092       77.56843       90.25430
H         81.88648       79.04490       91.28192
N         80.07413       78.15336       92.96221
C         79.07152       77.65829       93.90620
C         79.71528       76.85109       95.01410
O         79.74861       75.63703       94.92772
C         77.83089       77.01502       93.21848
C         78.06485       75.79348       92.36163
O         78.29112       74.57466       92.89724
O         77.96049       75.88957       91.14913
H         80.17524       79.17564       92.87478
H         78.62995       78.54903       94.40885
H         77.41297       77.81007       92.56133
H         77.04848       76.77937       93.97249
N         80.31547       77.50641       96.05530
C         80.97990       76.91204       97.21951
C         79.95689       76.35510       98.21009
O         79.87313       76.87740       99.31349
C         82.10415       75.90123       96.84086
C         82.93868       75.44642       98.07142
C         83.02832       76.45728       95.74061
C         83.74075       76.55439       98.77057
H         80.31946       78.53783       96.01905
H         81.47377       77.76209       97.73796
H         81.63141       74.99131       96.42527
H         83.66189       74.67519       97.73337
H         82.27102       74.97046       98.82084
H         83.51006       77.40545       96.05367
H         83.81313       75.71232       95.48748
H         82.45769       76.65715       94.81122
H         84.46284       77.03049       98.07645
H         83.07798       77.33185       99.19980
H         84.32409       76.11400       99.60600
N         79.11218       75.33858       97.87965
C         78.04316       74.86734       98.74585
C         78.58600       74.15917       99.99190
O         78.23537       74.62400      101.06774
C         77.00143       74.05957       97.93767
C         76.28467       74.89034       96.89598
O         75.42362       74.37161       96.20372
O         76.57045       76.19612       96.71831
H         79.17755       74.91039       96.95578
H         77.46214       75.75013       99.10448
H         76.23027       73.66311       98.63341
H         77.48253       73.23268       97.39685
N         79.46158       73.10102      100.01557
C         80.06725       72.41786       98.88059
C         79.11945       71.44212       98.20849
O         77.98634       71.32998       98.65541
H         79.78725       72.79278      100.94559
H         80.91503       71.80594       99.25663
H         80.49031       73.17282       98.19716
N         79.47809       70.64591       97.15271
C         80.82396       70.51553       96.57986
C         81.37409       71.82757       96.03318
O         80.59780       72.74986       95.83501
C         80.81263       69.39897       95.49567
C         79.90087       69.70734       94.33898
O         78.83793       68.91858       94.09203
O         80.13174       70.65389       93.60409
H         78.73815       70.03047       96.77912
H         81.48696       70.19797       97.41404
H         80.47110       68.45960       95.98237
H         81.80941       69.19341       95.06916
N         82.70853       72.04392       95.82248
C         83.77270       71.06231       95.99005
C         84.57294       71.29506       97.23993
O         84.21769       72.14482       98.04424
H         83.00369       72.99328       95.54389
H         84.42478       71.10023       95.09047
H         83.40436       70.03387       96.09558
N         85.68079       70.53275       97.46968
C         86.49213       70.64705       98.67694
C         87.69516       71.55256       98.46146
O         88.33147       71.90505       99.44567
C         86.76848       69.25511       99.30481
C         87.49135       68.21971       98.42040
C         88.91251       68.58514       98.10786
N         89.83614       68.68870       99.09006
O         89.24304       68.75708       96.94845
H         85.98315       69.88747       96.72562
H         85.90404       71.19870       99.44361
H         85.77789       68.81437       99.55309
H         87.31867       69.37978      100.26201
H         86.92037       68.05817       97.48248
H         87.50815       67.24286       98.95016
H         89.58218       68.51868      100.07346
H         90.81425       68.91862       98.86321
N         87.98503       72.07400       97.23135
C         88.88128       73.21086       97.02706
C         90.10994       72.88067       96.19296
O         90.90255       73.78461       95.97040
C         88.08418       74.40260       96.41485
C         86.97038       74.86675       97.36727
C         87.48406       74.07948       95.03642
H         87.48244       71.71973       96.40775
H         89.28447       73.56353       98.00274
H         88.78261       75.25883       96.28666
H         86.22537       74.06099       97.53602
H         87.40217       75.16379       98.34650
H         86.44277       75.74692       96.94181
H         86.98552       74.98212       94.62551
H         88.27390       73.76277       94.32388
H         86.72024       73.27957       95.10284
N         90.37042       71.61846       95.74639
C         91.61233       71.23946       95.07736
C         91.36755       70.70332       93.66987
O         92.35387       70.32148       93.05065
C         92.33136       70.13807       95.90835
C         92.86270       70.49486       97.28565
N         92.86293       71.75172       97.78947
O         93.34157       69.59459       97.95900
H         89.68784       70.87465       95.92325
H         92.30255       72.10404       94.96811
H         93.21236       69.76360       95.34289
H         91.62628       69.28990       96.02627
H         92.52034       72.55453       97.25757
H         93.24831       71.93227       98.72866
N         90.13613       70.64608       93.06842
C         89.98571       70.06077       91.73489
C         88.62852       70.30782       91.08135
O         87.59752       70.02334       91.67460
C         90.27266       68.53590       91.73492
C         89.33298       67.70515       92.58161
C         89.58196       67.51549       93.94977
C         88.22238       67.07200       91.99792
C         88.73601       66.70500       94.71625
C         87.36865       66.27816       92.76827
C         87.62385       66.08807       94.12865
O         86.80090       65.30753       94.85787
H         89.30678       71.03060       93.54544
H         90.74829       70.52485       91.07047
H         91.31640       68.30670       92.03359
H         90.20534       68.18890       90.68085
H         90.44051       67.97693       94.41690
H         88.01310       67.19769       90.94705
H         88.94556       66.54852       95.76553
H         86.51298       65.80377       92.30441
H         86.94768       65.14439       95.80067
N         88.59421       70.71805       89.77470
C         87.40886       70.76070       88.91766
C         86.39605       71.83386       89.26716
O         85.38727       71.90430       88.57733
C         86.75258       69.36936       88.77537
C         87.72984       68.34603       88.17731
C         87.04268       67.03544       87.92348
O         86.48814       66.34937       88.94068
O         86.98217       66.58581       86.79013
H         89.49008       70.92186       89.30522
H         87.74795       71.03882       87.89314
H         85.89415       69.45725       88.07270
H         86.35935       69.01142       89.74964
H         88.58631       68.18364       88.86211
H         88.12819       68.73827       87.21496
N         86.63696       72.78430       90.21151
C         85.77921       73.95360       90.36205
C         86.42173       75.15641       89.67266
O         85.82021       76.22208       89.68338
C         85.53513       74.24862       91.85077
C         84.88240       73.09808       92.63651
C         83.45389       72.82415       92.26112
O         83.09001       71.69744       91.96547
O         82.55755       73.82147       92.34953
H         87.52686       72.77337       90.73105
H         84.79472       73.79733       89.86829
H         84.90675       75.16114       91.95958
H         86.52105       74.46293       92.31416
H         84.85798       73.40591       93.70193
H         85.49640       72.17535       92.55995
N         87.62369       75.06406       89.02478
C         88.22288       76.18535       88.33625
H         89.19030       75.87507       87.88386
H         87.55142       76.53285       87.52297
H         88.41413       77.01369       89.04937
H         88.14515       74.17696       88.99476
Ca        80.34007       73.62106       92.75340
O         79.31611       72.74905       89.93239
H         80.28250       72.54086       89.87335
H         78.93363       72.00310       90.45960
O         77.92299       72.27162       94.77240
H         77.33539       73.06035       94.87126
H         77.37794       71.61774       94.26806

Ca 1.0



