%chk=apoCaM-CA-Ng.loop1.water3.frame492.chk
%nprocshared=20
%mem=10GB
%nosave
#b3lyp/svp scf=(tight,noincore,xqc) Test 
#IOP(5/87=12) Density=Current Pop=(MK,readradii) iop(6/33=2) iop(6/42=6)

apoCaM-CA-Ng.loop1.water3.frame492 

   0  1 
C         57.69233       49.49889       67.22411
C         58.86895       50.43076       67.19628
O         58.68181       51.62566       67.36882
H         56.97287       49.78009       66.42805
H         58.00473       48.44511       67.06246
H         57.19106       49.56530       68.21265
N         60.12619       49.94516       67.00587
C         61.31950       50.78532       67.02192
C         61.46124       51.65224       65.77154
O         62.46338       52.33977       65.69670
C         62.59890       49.91174       67.13511
C         62.66273       49.10068       68.40388
O         61.84058       48.22836       68.63194
O         63.65853       49.31487       69.28533
H         60.23843       48.92596       66.89921
H         61.29455       51.43978       67.92298
H         63.48937       50.57969       67.13590
H         62.68173       49.23460       66.25701
N         60.57041       51.65450       64.73346
C         60.84793       52.32932       63.46195
C         59.83604       53.41461       63.13152
O         58.65525       53.15524       63.31668
C         60.83115       51.28967       62.32465
C         61.93905       50.23818       62.47899
C         61.97551       49.32152       61.24724
C         63.12063       48.29744       61.28422
N         62.95231       47.30752       62.34859
H         59.70568       51.09999       64.79536
H         61.84645       52.77244       63.48323
H         60.98856       51.81863       61.36065
H         59.83869       50.78883       62.27545
H         61.76288       49.65131       63.40460
H         62.91980       50.75503       62.56271
H         62.13369       49.95917       60.34937
H         61.00376       48.79403       61.13068
H         64.09478       48.82248       61.40230
H         63.13621       47.76629       60.30667
H         63.72883       46.61023       62.28481
H         62.99335       47.75870       63.28929
H         62.04189       46.80640       62.22972
N         60.15011       54.61565       62.53182
C         61.46546       55.14403       62.13768
C         62.24963       54.22219       61.19255
O         63.05864       53.43510       61.66031
C         62.31262       55.60508       63.33512
C         61.75797       56.79320       64.07598
O         60.71073       57.32287       63.73854
O         62.45877       57.30907       65.10304
H         59.35121       55.22439       62.29211
H         61.29515       56.08974       61.58579
H         63.30935       55.91543       62.96075
H         62.43419       54.77163       64.03352
N         62.15576       54.29921       59.83490
C         61.31977       55.26813       59.15013
C         61.43114       55.20831       57.63605
O         62.12331       54.34825       57.11020
H         62.74045       53.65113       59.28530
H         61.66529       56.28139       59.44714
H         60.26019       55.11838       59.44938
N         60.82322       56.13455       56.83831
C         60.01149       57.24043       57.34290
C         60.78580       58.53688       57.25337
O         61.86577       58.56205       56.67627
C         58.63474       57.30429       56.64579
C         58.69868       57.61192       55.17100
O         59.23481       56.84025       54.39254
O         58.12249       58.73262       54.69642
H         61.01682       56.08646       55.82762
H         59.80429       57.10085       58.42099
H         58.02904       58.09526       57.13795
H         58.10356       56.33899       56.79180
N         60.32318       59.65120       57.88782
C         61.07519       60.89203       57.93288
C         62.38354       60.78508       58.70408
O         63.10855       61.76898       58.71256
H         59.41191       59.61870       58.36938
H         60.46171       61.67850       58.42377
H         61.28139       61.21866       56.89047
N         62.75652       59.65204       59.37927
C         64.02262       59.52243       60.09230
C         64.81696       58.38505       59.48058
O         64.34156       57.25721       59.47885
C         63.78863       59.24017       61.59185
C         62.95038       60.32943       62.26100
O         65.03538       59.16680       62.23524
H         62.13041       58.83639       59.40354
H         64.61236       60.46251       60.01661
H         63.24408       58.26985       61.68688
H         64.93158       58.54677       63.00109
H         61.94915       60.39045       61.78773
H         62.81153       60.08291       63.33545
H         63.45551       61.31512       62.18041
N         66.04571       58.61321       58.93754
C         66.84138       57.54837       58.32575
C         67.30821       56.49390       59.34203
O         67.86981       55.49480       58.91079
C         68.05337       58.12869       57.51923
C         69.08930       58.85304       58.42493
C         67.54669       59.04658       56.38476
C         70.35906       59.27825       57.67940
H         66.39673       59.58054       58.92898
H         66.18797       57.03031       57.58792
H         68.56639       57.26726       57.03606
H         69.40975       58.16223       59.23180
H         68.64291       59.75162       58.89977
H         66.81810       58.50225       55.74794
H         67.05308       59.95725       56.78382
H         68.37419       59.36746       55.72132
H         70.84784       58.39518       57.21566
H         70.14320       60.03227       56.89584
H         71.07215       59.73964       58.39493
N         67.16501       56.66410       60.69226
C         67.68708       55.73836       61.70020
C         66.63166       55.37384       62.74328
O         65.82801       56.22078       63.10318
C         68.93745       56.35574       62.37309
C         68.66669       57.70088       63.05878
O         69.94106       56.54984       61.40946
H         66.74243       57.53461       61.03773
H         68.03924       54.79431       61.22595
H         69.31298       55.65541       63.15567
H         70.32001       55.65586       61.20032
H         68.33226       58.46423       62.32520
H         67.90043       57.59702       63.85343
H         69.60228       58.07303       63.52488
N         66.60558       54.13024       63.30647
C         65.60256       53.71103       64.29027
C         65.60265       54.54405       65.57659
O         66.65595       54.94862       66.04673
C         65.72353       52.20607       64.65269
C         67.02587       51.84336       65.37868
O         65.60015       51.43434       63.48561
H         67.30535       53.44221       62.98917
H         64.60917       53.82002       63.80713
H         64.88223       51.96496       65.34088
H         65.27308       50.53823       63.76435
H         67.11634       52.40506       66.33140
H         67.01924       50.76161       65.63030
H         67.91101       52.05339       64.74562
N         64.41732       54.75599       66.22541
C         64.26114       55.40333       67.53316
C         62.79036       55.75234       67.91108
O         62.61918       56.50168       68.86262
C         64.89619       54.47662       68.61005
C         64.90464       54.99826       70.06143
C         65.64712       56.32936       70.26015
C         67.14430       56.23852       69.92689
N         67.80330       57.52357       70.15322
H         63.60892       54.40286       65.73882
H         64.79816       56.37418       67.46938
H         65.93919       54.23425       68.32768
H         64.33913       53.51328       68.60385
H         65.37331       54.22515       70.70932
H         63.86154       55.11307       70.41968
H         65.54345       56.61919       71.32858
H         65.17006       57.12261       69.64826
H         67.28845       55.95094       68.86407
H         67.61738       55.46305       70.57014
H         68.82230       57.42785       69.93992
H         67.39234       58.24950       69.52194
H         67.69079       57.81785       71.15046
N         61.68945       55.29924       67.23181
C         60.31029       55.68147       67.53561
C         59.88784       55.23136       68.91951
O         59.99312       54.04991       69.21977
C         59.36394       55.03692       66.49021
C         57.86951       55.38763       66.62299
C         57.62625       56.82250       66.26745
O         58.04434       57.72892       66.96957
O         57.05561       57.09427       65.07996
H         61.79293       54.66689       66.43951
H         60.23210       56.78317       67.44949
H         59.46852       53.93504       66.55591
H         59.69261       55.33667       65.47052
H         57.45407       55.12870       67.62007
H         57.33795       54.76779       65.86792
N         59.32995       56.12235       69.78775
C         58.81468       55.75439       71.09137
H         57.72392       55.96535       71.12397
H         58.96437       54.67835       71.31952
H         59.31871       56.35774       71.87355
H         59.22212       57.10702       69.50134
Ca        57.68736       58.91351       63.90989
O         57.37056       60.96567       65.88298
H         56.89429       60.16012       66.20716
H         58.05333       61.14483       66.57627
O         59.39066       61.12712       62.62694
H         60.09212       61.78056       62.87437
H         59.21573       61.29972       61.66772
O         60.26435       59.64812       65.82993
H         60.35096       58.68138       66.01750
H         60.56129       60.08521       66.66659

Ca 1.0



