%chk=apoCaM-CA-Ng.loop3.water6.frame380.chk
%nprocshared=20
%mem=10GB
%nosave
#b3lyp/svp scf=(tight,noincore,xqc) Test 
#IOP(5/87=12) Density=Current Pop=(MK,readradii) iop(6/33=2) iop(6/42=6)

apoCaM-CA-Ng.loop3.water6.frame380 

   0  1 
C         42.69523      113.68200        5.36582
C         44.00504      113.35023        4.71747
O         44.89237      112.84934        5.38970
H         41.87648      113.12625        4.86343
H         42.70783      113.40878        6.44293
H         42.50588      114.77261        5.27691
N         44.20143      113.63070        3.39715
C         45.43672      113.35677        2.66468
C         46.62905      114.17695        3.18911
O         47.73761      113.97826        2.71331
C         45.69621      111.82781        2.62296
C         46.66154      111.37873        1.54975
O         46.91536      110.06475        1.40427
O         47.17473      112.17213        0.77594
H         43.42395      114.05905        2.87088
H         45.26141      113.67189        1.61131
H         44.73568      111.31912        2.38677
H         46.04759      111.46834        3.61177
N         46.46384      115.17885        4.10602
C         47.55028      116.05806        4.54297
C         48.54457      115.36538        5.46260
O         49.64189      115.87895        5.63137
C         46.97493      117.28349        5.28349
C         46.09895      118.14542        4.35951
C         45.46519      119.30797        5.12646
C         44.65261      120.20067        4.18025
N         44.01761      121.29541        4.91137
H         45.51726      115.38924        4.44590
H         48.09228      116.41956        3.64035
H         47.80495      117.91970        5.66245
H         46.37949      116.92970        6.15583
H         45.27921      117.54330        3.91343
H         46.73339      118.53714        3.53467
H         46.26070      119.91649        5.60848
H         44.79697      118.89939        5.91707
H         43.86755      119.59697        3.67197
H         45.32979      120.62082        3.40327
H         44.74129      121.86951        5.40176
H         43.50259      121.90389        4.23494
H         43.33807      120.91213        5.60809
N         48.20400      114.24796        6.15850
C         49.10369      113.56863        7.08942
C         50.27003      112.98194        6.30652
O         50.04838      112.48353        5.21414
C         48.28697      112.48670        7.82592
C         48.89780      111.79170        9.04027
O         49.23313      112.68460       10.06061
O         50.03528      111.04800        8.74320
H         47.24877      113.87834        6.04502
H         49.45334      114.29101        7.85998
H         48.00429      111.72390        7.09592
H         47.36076      112.96258        8.21403
N         51.53928      113.02313        6.79499
C         52.71136      112.51021        6.09056
C         52.58877      111.04421        5.71893
O         52.81434      110.70199        4.56642
H         51.68649      113.43852        7.72500
H         53.59386      112.62716        6.75611
H         52.89661      113.11256        5.17420
N         52.21961      110.12467        6.65288
C         52.08138      108.68154        6.40933
C         51.00509      108.29872        5.37742
O         50.81559      107.10994        5.15623
C         51.72577      107.96155        7.73615
C         52.68283      108.26927        8.86112
N         53.99947      107.97983        8.76173
O         52.25678      108.78986        9.88009
H         52.06137      110.47994        7.60438
H         53.05958      108.29550        6.04953
H         51.71705      106.86149        7.57691
H         50.70299      108.27018        8.04720
H         54.38213      107.54012        7.91340
H         54.63918      108.20137        9.53929
N         50.25673      109.22309        4.71531
C         49.16677      108.90484        3.81161
C         47.99076      108.37962        4.59163
O         47.45069      107.33294        4.26792
H         50.42472      110.21532        4.86378
H         49.49588      108.22415        2.99722
H         48.82483      109.85434        3.34302
N         47.55719      109.09858        5.66104
C         46.41917      108.76523        6.50581
C         46.91631      108.37492        7.89285
O         48.07005      108.60377        8.22502
C         45.48368      110.00359        6.50671
C         44.36683      110.07283        7.52054
C         43.29341      109.17204        7.49942
C         44.38202      111.09813        8.48855
C         42.25562      109.29323        8.43408
C         43.35060      111.21537        9.41873
C         42.28145      110.31274        9.39564
O         41.27806      110.41602       10.29023
H         48.09226      109.94207        5.90376
H         45.88388      107.87996        6.09907
H         45.06035      110.13115        5.48801
H         46.11553      110.88673        6.68443
H         43.25913      108.38349        6.75961
H         45.19145      111.81679        8.52554
H         41.43146      108.59305        8.41382
H         43.38373      112.01147       10.15322
H         41.26501      111.10695       10.96882
N         46.09103      107.67092        8.71577
C         46.46353      107.14394       10.03098
C         47.68362      106.22954        9.92827
O         48.54221      106.33209       10.79300
C         45.22227      106.45881       10.69030
C         44.16215      107.55272       11.00792
C         45.57839      105.70171       11.98530
C         42.78030      107.00828       11.36474
H         45.15034      107.45532        8.35740
H         46.74739      107.98697       10.69980
H         44.81299      105.72330        9.96165
H         44.01460      108.20410       10.13067
H         44.53305      108.20346       11.83127
H         46.31216      104.90210       11.79051
H         46.00536      106.39048       12.74365
H         44.68729      105.19867       12.41089
H         42.80178      106.37451       12.27176
H         42.09565      107.86098       11.56189
H         42.37489      106.42575       10.51049
N         47.88945      105.38228        8.87503
C         49.13933      104.62636        8.74312
C         49.30083      103.53175        9.79305
O         50.40220      103.02011        9.93092
C         49.28876      104.02987        7.33593
O         48.25791      103.12011        7.05782
H         47.19077      105.34940        8.11687
H         49.97491      105.35208        8.87184
H         50.28474      103.54168        7.21895
H         49.25258      104.84737        6.58455
H         48.52821      102.25086        7.45377
N         48.25249      103.12136       10.56358
C         48.33543      102.12552       11.62769
C         49.32090      102.56308       12.70608
O         50.11491      101.75500       13.17125
C         48.65433      100.73391       11.05387
H         47.32821      103.53966       10.40313
H         47.32797      102.06855       12.09804
H         49.66374      100.71069       10.59234
H         48.62021       99.96559       11.85494
H         47.90840      100.46219       10.27687
N         49.35143      103.86501       13.10860
C         50.29878      104.40695       14.07558
C         49.55675      105.18436       15.13997
O         48.73516      106.02457       14.79637
C         51.28802      105.32697       13.36358
H         48.70700      104.52994       12.65507
H         50.90556      103.59995       14.54439
H         51.85259      104.74686       12.60215
H         50.76822      106.17156       12.86547
H         52.01671      105.73021       14.10078
N         49.80494      104.95817       16.46071
C         49.08639      105.59846       17.55721
C         47.62548      105.19516       17.49369
O         46.74532      106.04579       17.49604
C         49.27666      107.13925       17.58657
C         50.74271      107.56041       17.77610
C         50.91361      109.05849       17.85279
O         52.14298      109.57351       18.04213
O         49.95882      109.81459       17.75164
H         50.52462      104.26373       16.71473
H         49.48747      105.19338       18.51302
H         48.69328      107.54541       18.44281
H         48.87988      107.60059       16.65779
H         51.35490      107.18132       16.93054
H         51.12496      107.12116       18.72244
N         47.30230      103.87556       17.41668
C         45.93307      103.42016       17.34680
H         45.42609      103.87259       16.46798
H         45.90998      102.31486       17.24054
H         45.39590      103.70320       18.27613
H         48.05393      103.16964       17.38858
Ca        50.99365      111.43563       10.77118
O         53.97500      110.39270       11.64894
H         54.91582      110.33749       11.34643
H         53.82797      109.55772       12.16027
O         49.43757      112.14294       13.39433
H         50.03662      112.28679       14.16945
H         49.01042      113.02332       13.24342
O         49.21646      109.02123       11.44744
H         49.91760      108.47549       11.01158
H         48.72504      109.43552       10.69608
O         52.73615      112.82131       12.93619
H         52.72047      112.54860       13.88776
H         52.25078      113.68392       12.91432
O         51.27613      109.43354       13.55858
H         51.88840      108.91467       14.13782
H         50.37526      109.25666       13.92955
O         53.11611      112.89784        9.74595
H         54.09762      113.00507        9.78728
H         52.75006      113.78788        9.98049

Ca 1.0



