%chk=apoCaM-CA-Ng.loop2.water4.frame1475.chk
%nprocshared=20
%mem=10GB
%nosave
#b3lyp/svp scf=(tight,noincore,xqc) Test 
#IOP(5/87=12) Density=Current Pop=(MK,readradii) iop(6/33=2) iop(6/42=6)

apoCaM-CA-Ng.loop2.water4.frame1475 

   -2  1 
C         50.94413       62.61699       82.22375
C         52.01346       63.51880       82.79136
O         53.10935       63.01724       82.99270
H         49.94311       63.06032       82.10641
H         51.26908       62.23807       81.23368
H         50.81614       61.75562       82.91244
N         51.83010       64.83012       83.12561
C         50.61822       65.61614       82.92129
C         49.87773       65.85746       84.25411
O         48.81132       66.45590       84.22822
C         50.99177       66.89656       82.13206
C         51.86922       67.78316       82.94892
O         53.12631       68.14717       82.62486
O         51.41216       68.20077       83.98449
H         52.62445       65.31150       83.57763
H         49.89815       65.08808       82.27838
H         50.06795       67.46490       81.88091
H         51.49983       66.62414       81.18297
N         50.34211       65.34394       85.43894
C         49.57376       65.32849       86.68971
C         49.35825       66.68188       87.37145
O         48.64416       66.70172       88.36496
C         50.25771       64.37922       87.68801
H         51.22947       64.82197       85.43294
H         48.57469       64.89592       86.46094
H         50.36464       63.36909       87.23603
H         51.26932       64.75713       87.95263
H         49.65739       64.27438       88.61640
N         49.93247       67.83640       86.93058
C         49.73313       69.14244       87.56794
C         49.01571       70.07306       86.59576
O         47.93513       70.54666       86.91783
C         51.06677       69.70156       88.14972
C         52.12698       70.06568       87.14571
O         52.46696       69.18320       86.19606
O         52.59044       71.19173       87.12675
H         50.53320       67.78185       86.10875
H         49.07231       69.03166       88.45651
H         51.48713       68.93292       88.83253
H         50.84102       70.60542       88.75843
N         49.52725       70.32237       85.35761
C         48.84718       71.08132       84.32523
C         49.15072       72.55578       84.38738
O         48.64022       73.28016       83.54513
H         50.41204       69.89656       85.09429
H         47.75189       70.89398       84.36646
H         49.19939       70.71852       83.33458
N         49.95447       73.08198       85.35428
C         50.20885       74.50752       85.49487
C         51.69286       74.85049       85.46180
O         51.99827       76.03248       85.54800
C         49.52102       74.96034       86.79557
C         48.02180       74.88218       86.60282
N         47.26830       73.97417       87.26410
O         47.48620       75.63958       85.80641
H         50.35633       72.46545       86.07490
H         49.76602       75.08282       84.65228
H         49.77771       76.00812       87.05798
H         49.85870       74.30503       87.63083
H         47.69467       73.30171       87.91642
H         46.25173       73.92547       87.09473
N         52.67532       73.91248       85.31481
C         54.07551       74.30522       85.19719
C         55.04830       73.14700       85.32516
O         54.62566       72.02979       85.57353
H         52.42485       72.91729       85.25729
H         54.33117       75.01518       86.01227
H         54.20561       74.80841       84.21362
N         56.39510       73.30877       85.18990
C         57.06036       74.55193       84.82085
C         57.69677       74.33536       83.46320
O         57.33127       75.03227       82.52679
C         58.07581       74.96242       85.91270
C         58.79026       76.27481       85.56073
O         57.38689       75.12716       87.12582
H         56.98815       72.47366       85.31824
H         56.33377       75.38545       84.72653
H         58.83360       74.15261       86.02321
H         58.06510       75.10233       87.85081
H         59.36436       76.17152       84.61842
H         58.05539       77.10004       85.44606
H         59.50373       76.54526       86.36803
N         58.62376       73.34990       83.27797
C         59.19307       73.00857       81.97541
C         58.88709       71.55315       81.62756
O         58.69944       70.76603       82.54458
C         60.73490       73.24062       81.94677
C         61.45184       72.50144       83.11442
C         61.03702       74.74619       81.95574
C         62.97684       72.54575       83.04348
H         58.90949       72.78948       84.09355
H         58.71762       73.64945       81.21366
H         61.11934       72.84084       80.98274
H         61.16455       71.42965       83.10437
H         61.14363       72.93509       84.09014
H         62.12194       74.93764       81.83698
H         60.52891       75.23622       81.09762
H         60.68629       75.21479       82.89654
H         63.33105       72.08086       82.09987
H         63.35796       73.58334       83.11844
H         63.39460       71.97376       83.89991
N         58.87269       71.06756       80.34720
C         58.98867       71.85284       79.12017
C         60.26822       71.50317       78.39503
O         60.47660       70.34409       78.06151
C         57.77357       71.58310       78.20596
C         56.45817       72.03638       78.78556
O         55.43509       71.87771       78.13935
O         56.38829       72.63205       79.99214
H         58.73793       70.05005       80.23002
H         59.00988       72.93759       79.31196
H         57.71205       70.49538       77.98162
H         57.91056       72.12622       77.24776
N         61.16690       72.48837       78.10053
C         62.41657       72.26564       77.38910
C         63.59977       72.66450       78.26067
O         63.43873       73.51117       79.13116
C         62.46318       73.11076       76.08992
C         61.57939       72.58479       74.98013
C         62.16629       72.13889       73.77942
C         60.18144       72.54299       75.10715
C         61.37258       71.65458       72.73690
C         59.38967       72.05218       74.06284
C         59.98492       71.60796       72.87917
H         60.95565       73.45643       78.38991
H         62.51710       71.19833       77.12491
H         63.50565       73.11892       75.71116
H         62.21298       74.17084       76.31328
H         63.24093       72.16546       73.64557
H         59.70228       72.89457       76.00636
H         61.83530       71.31598       71.81850
H         58.31325       72.01949       74.16920
H         59.37206       71.23143       72.07036
N         64.85357       72.16039       78.03669
C         65.17527       71.12875       77.06739
C         64.63974       69.77250       77.50988
O         63.96206       69.14515       76.70599
C         66.69815       71.23864       76.92373
C         67.16040       71.69417       78.29008
C         66.04171       72.65268       78.71168
H         64.77088       71.34422       76.05550
H         67.20729       70.35135       76.49009
H         66.89455       72.10343       76.24769
H         67.17063       70.81139       78.94918
H         68.18162       72.12802       78.33080
H         65.94754       72.65851       79.81892
H         66.23580       73.68222       78.33838
N         64.89304       69.24360       78.74411
C         64.45770       67.90966       79.12635
C         65.67355       66.99835       79.05926
O         66.57477       67.19944       79.86228
C         63.85185       67.88930       80.54835
C         62.59734       68.76198       80.68794
C         62.02833       68.64036       82.07512
O         62.76452       69.00012       83.14458
O         60.89745       68.21113       82.24021
H         65.46600       69.75840       79.42022
H         63.65653       67.56918       78.45590
H         64.61371       68.22955       81.28557
H         63.57763       66.83839       80.79305
H         61.83606       68.43270       79.94756
H         62.84548       69.82733       80.49374
N         65.84278       65.99962       78.13971
C         64.94957       65.64770       77.04945
H         64.04247       66.26263       76.96345
H         65.49595       65.75821       76.08916
H         64.63540       64.59007       77.15949
H         66.71278       65.44772       78.19380
Ca        53.79691       69.41614       84.38013
O         55.99774       69.77110       82.42898
H         55.50863       70.09079       81.63009
H         56.05404       70.56487       83.01903
O         52.94951       71.63843       82.60440
H         53.74542       72.11027       82.25188
H         52.62872       71.08849       81.84601
O         55.24881       66.59489       84.50559
H         54.60203       66.34424       85.21232
H         56.07453       66.83318       84.99732
O         56.22003       69.33911       86.44479
H         56.07969       69.54023       87.40401
H         56.80929       70.06605       86.12164

Ca 1.0



