%chk=apoCaM-CA-Ng.loop1.water4.frame241.chk
%nprocshared=20
%mem=10GB
%nosave
#b3lyp/svp scf=(tight,noincore,xqc) Test 
#IOP(5/87=12) Density=Current Pop=(MK,readradii) iop(6/33=2) iop(6/42=6)

apoCaM-CA-Ng.loop1.water4.frame241 

   0  1 
C         33.41015       23.50711      112.91913
C         33.26171       22.04342      113.21950
O         32.14932       21.58960      113.44600
H         34.46883       23.77291      112.70879
H         32.81051       23.75812      112.01840
H         33.05644       24.10975      113.77904
N         34.35121       21.23110      113.19748
C         34.26739       19.78438      113.34465
C         34.14101       19.33814      114.80423
O         34.15788       18.14298      115.02210
C         35.52471       19.11632      112.72559
C         35.73529       19.45025      111.26796
O         36.01485       20.70807      110.87848
O         35.69385       18.56756      110.42833
H         35.26353       21.65356      112.97015
H         33.40162       19.40256      112.75720
H         35.39605       18.01716      112.79067
H         36.43698       19.39798      113.29510
N         34.06106       20.19497      115.86345
C         34.19504       19.73279      117.25016
C         32.95351       19.98931      118.08896
O         32.43136       21.09163      118.00325
C         35.41031       20.42860      117.88449
C         36.70675       19.99555      117.18531
C         37.93395       20.57059      117.89099
C         39.22053       20.07777      117.21862
N         40.39954       20.59013      117.91347
H         33.99637       21.20965      115.70007
H         34.41550       18.66052      117.28484
H         35.47992       20.13375      118.95116
H         35.29293       21.53399      117.84539
H         36.69500       20.32257      116.12243
H         36.77555       18.88509      117.21398
H         37.93112       20.23662      118.95225
H         37.89487       21.68136      117.86326
H         39.23915       20.41360      116.15782
H         39.24457       18.96459      117.23440
H         40.40275       21.63564      117.89253
H         40.40329       20.25611      118.90489
H         41.25865       20.23616      117.43448
N         32.44428       19.09332      119.00679
C         32.94985       17.75217      119.35427
C         34.41012       17.80810      119.78363
O         35.26510       17.27615      119.08921
C         32.64851       16.71006      118.25357
C         31.17332       16.56048      118.02158
O         30.29020       17.30109      118.72044
O         30.77143       15.79817      117.15757
H         31.63528       19.41698      119.56045
H         32.38441       17.36656      120.23244
H         33.03957       15.72079      118.57001
H         33.11529       16.98029      117.29152
N         34.79628       18.44150      120.92759
C         33.84035       18.89944      121.92507
C         34.49056       19.61614      123.09553
O         35.62973       20.04283      122.97273
H         35.80672       18.50315      121.12579
H         33.34831       17.97473      122.29242
H         33.08116       19.58220      121.49378
N         33.86480       19.76852      124.30179
C         32.56925       19.18231      124.64232
C         32.79999       17.93862      125.48309
O         33.93683       17.65446      125.83979
C         31.61591       20.20385      125.30345
C         32.08548       20.72737      126.63554
O         33.10286       21.39518      126.72120
O         31.35287       20.49515      127.74153
H         34.40893       20.21091      125.05675
H         32.04677       18.84233      123.72815
H         30.62989       19.71262      125.45466
H         31.45455       21.06021      124.61372
N         31.77024       17.09793      125.77314
C         31.97069       15.82204      126.43939
C         32.85958       14.93162      125.59778
O         33.88807       14.47356      126.07473
H         30.81632       17.33957      125.46464
H         30.98727       15.31738      126.55696
H         32.40339       15.98083      127.45124
N         32.51050       14.66633      124.30908
C         33.29834       13.83681      123.39873
C         34.67430       14.45095      123.16267
O         34.77295       15.66704      123.07341
C         32.56690       13.68119      122.03632
C         31.19122       13.01472      122.17619
O         33.34254       12.88563      121.18183
H         31.63831       15.09298      123.96344
H         33.41517       12.82009      123.83691
H         32.44034       14.69932      121.59463
H         33.07342       13.11048      120.25340
H         30.50245       13.60321      122.81237
H         30.72233       12.92497      121.17292
H         31.29964       11.99760      122.60862
N         35.76386       13.65114      122.95371
C         37.09513       14.16881      122.62456
C         37.46184       13.88722      121.16254
O         38.55365       14.26052      120.75560
C         38.17823       13.63171      123.61636
C         38.41158       12.10144      123.49012
C         37.82313       14.03733      125.05943
C         39.61057       11.59948      124.30297
H         35.63028       12.62888      122.97195
H         37.10448       15.27730      122.71640
H         39.13452       14.13726      123.35238
H         38.63390       11.85814      122.43090
H         37.50537       11.53766      123.79585
H         36.88967       13.53549      125.39253
H         38.63648       13.77527      125.76566
H         37.68063       15.13655      125.12425
H         39.45688       11.73487      125.39204
H         39.75558       10.51396      124.11800
H         40.53567       12.13207      123.99360
N         36.58986       13.27276      120.30797
C         36.85814       12.98417      118.90377
C         35.88854       13.76014      118.02180
O         34.69309       13.75220      118.27516
C         36.71946       11.46948      118.63469
C         37.74823       10.66597      119.43202
O         36.92869       11.20608      117.26928
H         35.66894       12.98703      120.65222
H         37.89778       13.26955      118.62709
H         35.70481       11.11858      118.94082
H         36.04680       11.27552      116.81792
H         37.60423       10.81225      120.52143
H         37.63542        9.58458      119.20672
H         38.77907       10.97839      119.15584
N         36.36277       14.41997      116.92903
C         35.56557       15.23337      116.00348
C         34.38758       14.48109      115.35077
O         34.17880       13.30919      115.62760
C         36.51382       15.84276      114.92759
C         37.12650       14.79314      113.98920
O         37.53811       16.56553      115.56648
H         37.37728       14.35224      116.75961
H         35.13632       16.07806      116.57977
H         35.93060       16.53414      114.29946
H         37.77366       17.33304      114.98151
H         37.74848       14.06103      114.54270
H         36.32921       14.24529      113.44426
H         37.76870       15.29849      113.23727
N         33.59665       15.11761      114.43039
C         32.50323       14.50471      113.68413
C         31.25738       15.40614      113.58114
O         30.31663       14.99802      112.91377
C         33.03569       14.07485      112.29509
C         33.69305       15.18987      111.45973
C         34.30464       14.59982      110.17835
C         35.09894       15.65196      109.39565
N         35.72700       15.06604      108.21159
H         33.84901       16.06263      114.14264
H         32.17797       13.56371      114.17980
H         32.21899       13.59729      111.71047
H         33.81127       13.29835      112.47924
H         34.52098       15.64473      112.04216
H         32.95282       15.98118      111.21065
H         33.50082       14.17596      109.53785
H         35.00623       13.78285      110.45790
H         35.89738       16.06105      110.05305
H         34.42390       16.48067      109.08759
H         34.99836       14.68245      107.56746
H         36.26946       15.80660      107.71057
H         36.38572       14.30390      108.49467
N         31.14507       16.60837      114.22956
C         29.94942       17.45676      114.15136
C         29.74623       17.99391      112.75074
O         30.62581       18.66876      112.23325
C         30.04581       18.63252      115.15432
C         28.89526       19.66657      115.08418
C         27.48153       19.12006      115.11209
O         26.73293       19.37234      114.18149
O         26.99871       18.40631      116.14948
H         31.91255       16.92104      114.83796
H         29.06409       16.85690      114.45921
H         30.99560       19.19015      114.99541
H         30.09408       18.20907      116.16952
H         29.01499       20.24525      114.14198
H         29.02224       20.38354      115.92390
N         28.56472       17.77420      112.10731
C         28.24049       18.32896      110.80993
H         27.34470       18.97934      110.90945
H         29.06664       18.94036      110.39138
H         28.00810       17.50620      110.10364
H         27.83475       17.21259      112.57135
Ca        28.29259       17.64856      117.80288
O         25.25114       16.51922      117.88908
H         24.80188       17.25317      117.39952
H         25.08021       15.71311      117.34063
O         27.75359       14.46938      117.48618
H         27.74410       15.15000      116.76677
H         28.23470       14.90291      118.23520
O         28.24451       15.33951      121.13031
H         27.46900       14.72409      121.15350
H         28.65899       15.24954      122.02491
O         25.39321       17.00842      120.95291
H         25.39694       16.31562      121.66020
H         24.48274       16.96193      120.56645

Ca 1.0



