%chk=apoCaM-CA-Ng.loop4.water4.frame109.chk
%nprocshared=20
%mem=10GB
%nosave
#b3lyp/svp scf=(tight,noincore,xqc) Test 
#IOP(5/87=12) Density=Current Pop=(MK,readradii) iop(6/33=2) iop(6/42=6)

apoCaM-CA-Ng.loop4.water4.frame109 

   -3  1 
C         26.45702       72.54908       96.58939
C         25.62968       73.77430       96.82995
O         25.57947       74.20585       97.96418
H         27.50061       72.76042       96.91395
H         26.06322       71.70166       97.18664
H         26.47651       72.27179       95.51640
N         24.99883       74.41819       95.80550
C         24.33907       75.71817       95.92391
C         25.34384       76.78443       96.31813
O         25.16547       77.47448       97.30405
C         22.97008       75.70929       96.66826
C         22.72970       74.98995       97.98458
O         23.33884       75.27900       99.15502
O         21.85643       74.13605       98.00806
H         25.07996       74.01954       94.85800
H         24.04970       76.03944       94.89625
H         22.26443       75.22856       95.95151
H         22.62508       76.76087       96.76887
N         26.42778       76.96071       95.50330
C         27.52673       77.92212       95.61363
C         27.08619       79.36167       95.34846
O         27.49314       79.90314       94.32898
C         28.36386       77.77026       96.91349
C         29.68197       78.59967       96.85348
C         28.67695       76.29547       97.22480
C         30.67636       78.18036       95.75451
H         26.49593       76.32301       94.69377
H         28.20074       77.65121       94.77371
H         27.76052       78.15292       97.76228
H         30.20314       78.50424       97.83003
H         29.43934       79.67422       96.70968
H         27.74073       75.73042       97.39982
H         29.22052       75.80673       96.39088
H         29.28408       76.22049       98.15197
H         30.99574       77.12512       95.87760
H         30.25857       78.31717       94.73716
H         31.58469       78.81408       95.81480
N         26.26268       80.04994       96.19287
C         25.78847       81.39631       95.89718
C         26.86661       82.45115       96.16161
O         27.24453       83.10046       95.19647
C         24.42887       81.67636       96.58005
C         23.35699       80.75928       96.04995
O         23.06576       80.77204       94.86423
O         22.70141       79.93042       96.88212
H         25.91728       79.60142       97.04616
H         25.55173       81.44990       94.80845
H         24.11528       82.72147       96.37001
H         24.47828       81.53502       97.67223
N         27.43743       82.72431       97.37692
C         27.10566       82.05776       98.62815
C         27.88216       82.59137       99.83454
O         28.73822       83.44498       99.65221
H         28.15241       83.46728       97.38598
H         27.32029       80.97814       98.50758
H         26.05040       82.23264       98.83027
N         27.69411       82.13986      101.11896
C         26.71711       81.15459      101.58331
C         26.86425       79.87198      100.78114
O         25.93348       79.48293      100.09082
C         25.30860       81.78760      101.60994
C         24.29639       80.91722      102.29614
O         24.49096       80.52510      103.57000
O         23.27123       80.59919      101.71826
H         28.31716       82.52346      101.84573
H         26.93313       80.92775      102.65077
H         24.94564       82.04382      100.60101
H         25.37314       82.73094      102.19428
N         28.04933       79.19949      100.72980
C         29.20098       79.50014      101.55641
C         30.21645       80.29125      100.79547
O         30.02594       80.58812       99.62494
H         28.16512       78.45656      100.03231
H         29.63430       78.55567      101.94905
H         28.92475       80.09920      102.44303
N         31.33645       80.69273      101.43988
C         32.34559       81.54095      100.83144
C         33.57194       80.72627      100.48866
O         34.53191       81.30542       99.99413
C         32.63559       82.72015      101.78427
C         31.37051       83.57820      101.98386
C         31.53543       84.71276      102.96173
N         30.48894       85.53584      103.20643
O         32.59597       84.89233      103.54259
H         31.49109       80.37412      102.41048
H         31.99265       81.95871       99.86301
H         33.44060       83.36156      101.36428
H         32.97422       82.32234      102.76452
H         30.54844       82.94078      102.36795
H         31.06891       84.00031      101.00117
H         29.58799       85.39605      102.72427
H         30.57526       86.31317      103.87753
N         33.59311       79.36874      100.65161
C         34.70623       78.52819      100.24810
C         35.39141       77.90752      101.45145
O         36.48103       77.38526      101.27813
C         34.25803       77.48482       99.18468
C         33.75073       78.19902       97.92155
C         33.17240       76.52071       99.69946
H         32.77877       78.89012      101.05958
H         35.49291       79.16024       99.77900
H         35.14502       76.87895       98.89720
H         32.85451       78.81733       98.14624
H         34.54245       78.86075       97.51049
H         33.47926       77.45820       97.14008
H         32.23032       77.05409       99.94509
H         32.92894       75.77058       98.91661
H         33.52525       75.97728      100.60010
N         34.85292       77.98011      102.70892
C         35.61169       77.64825      103.90353
C         35.06788       76.40014      104.55940
O         35.82294       75.44400      104.69058
C         35.58776       78.85674      104.86732
C         36.03331       80.12542      104.17463
N         35.19579       81.18633      104.07527
O         37.15217       80.19108      103.68853
H         33.90523       78.34946      102.85463
H         36.67634       77.45485      103.64322
H         36.24815       78.65829      105.73835
H         34.55634       79.00717      105.25200
H         34.24720       81.15213      104.47700
H         35.49213       82.04689      103.59089
N         33.78888       76.33356      105.02847
C         33.29378       75.17685      105.76903
C         31.85395       74.82871      105.43486
O         31.16129       75.61261      104.79851
C         33.50661       75.42059      107.28008
C         32.96894       76.76069      107.74942
C         31.59403       77.05075      107.73247
C         33.86381       77.74936      108.20025
C         31.12505       78.29863      108.15088
C         33.39355       78.99814      108.61539
C         32.02061       79.27706      108.59089
O         31.55197       80.47823      108.98466
H         33.19109       77.17254      104.96369
H         33.88343       74.27634      105.48477
H         34.60684       75.40694      107.44525
H         33.08255       74.59172      107.88585
H         30.87769       76.32193      107.39553
H         34.93010       77.56064      108.22206
H         30.06246       78.50529      108.12904
H         34.09789       79.74818      108.95260
H         32.13895       81.18424      109.29074
N         31.35368       73.61857      105.83179
C         29.97861       73.15562      105.63933
C         29.54754       73.02709      104.18156
O         28.40931       72.63666      103.95957
C         28.99586       74.01487      106.45836
C         29.30272       73.90854      107.96256
C         28.34756       74.73428      108.77083
O         28.81027       75.73190      109.54781
O         27.15025       74.49813      108.73985
H         31.98890       72.97349      106.32775
H         29.90351       72.12251      106.04908
H         27.96166       73.63730      106.29685
H         29.03280       75.07274      106.12360
H         30.33930       74.24706      108.16676
H         29.22334       72.84817      108.28860
N         30.39939       73.25052      103.14078
C         30.04237       73.02203      101.74719
C         30.82809       71.83914      101.19490
O         30.67717       71.54201      100.01778
C         30.30179       74.30885      100.93136
C         29.52032       75.53908      101.43609
C         28.03254       75.43227      101.23617
O         27.41324       76.34982      100.47508
O         27.38162       74.55021      101.76946
H         31.37212       73.53194      103.31909
H         28.97553       72.74184      101.63840
H         30.05256       74.14318       99.85924
H         31.38577       74.54432      100.99561
H         29.87471       76.41830      100.85548
H         29.74343       75.72924      102.50535
N         31.64509       71.08431      101.99363
C         32.37158       69.92106      101.53338
H         33.45569       70.07233      101.71642
H         32.03366       69.03411      102.11083
H         32.21448       69.72031      100.45429
H         31.75687       71.30558      102.99254
Ca        25.33769       76.17539       99.65526
O         25.22103       77.01252      102.60017
H         25.11117       76.71336      103.53727
H         25.14037       77.99783      102.64093
O         24.42187       73.89565      101.55593
H         24.13722       73.07402      102.02793
H         25.06294       73.57894      100.87112
O         22.18795       76.42081      101.88447
H         22.56571       75.74719      102.50317
H         21.59795       75.90364      101.28063
O         23.24538       78.48375       99.55054
H         22.81650       78.49399      100.44086
H         22.49035       78.37598       98.92171

Ca 1.0



