%chk=apoCaM-CA-Ng.loop1.water3.frame1415.chk
%nprocshared=20
%mem=10GB
%nosave
#b3lyp/svp scf=(tight,noincore,xqc) Test 
#IOP(5/87=12) Density=Current Pop=(MK,readradii) iop(6/33=2) iop(6/42=6)

apoCaM-CA-Ng.loop1.water3.frame1415 

   0  1 
C         58.78989       87.40193       12.56013
C         59.66868       87.15758       11.36946
O         59.72482       86.02843       10.90356
H         57.73990       87.14751       12.30913
H         59.12920       86.76328       13.40373
H         58.83397       88.46234       12.88615
N         60.41561       88.16891       10.84295
C         61.35021       87.98438        9.74146
C         62.74136       88.16836       10.29522
O         63.48015       89.05079        9.87851
C         61.03240       88.95418        8.58943
C         59.65326       88.72737        8.04005
O         59.35106       87.64814        7.55607
O         58.74495       89.72061        8.07144
H         60.36660       89.10388       11.27694
H         61.30318       86.94834        9.33994
H         61.76762       88.80504        7.76790
H         61.11775       90.00213        8.95140
N         63.14909       87.32615       11.28064
C         64.45381       87.39233       11.91622
C         65.56684       87.23518       10.89001
O         66.43921       88.09235       10.88431
C         64.57740       86.39602       13.09714
C         63.48666       86.67313       14.15738
C         63.66977       85.87154       15.44956
C         62.49702       86.15533       16.40587
N         62.66837       85.46924       17.68469
H         62.48776       86.59669       11.58336
H         64.56437       88.40031       12.37907
H         65.57487       86.54969       13.56585
H         64.51334       85.34119       12.75545
H         62.48863       86.43084       13.73844
H         63.50146       87.75281       14.42520
H         64.62736       86.17198       15.92877
H         63.70405       84.78357       15.22508
H         61.54860       85.81534       15.93120
H         62.41722       87.24981       16.59280
H         63.52216       85.82924       18.16959
H         61.83423       85.66075       18.28632
H         62.74997       84.43773       17.53581
N         65.61942       86.26078        9.93117
C         64.64974       85.19118        9.69852
C         63.85506       85.45620        8.41196
O         64.08950       86.45641        7.74781
C         65.36282       83.81617        9.78712
C         66.71227       83.72200        9.10662
O         66.86327       83.80614        7.77224
O         67.70622       83.54536        9.79390
H         66.40253       86.31970        9.26099
H         63.87600       85.16392       10.48361
H         64.69598       82.99388        9.45416
H         65.55962       83.64758       10.87025
N         62.82467       84.63079        8.05496
C         61.89087       84.88591        6.95549
C         62.52149       84.88959        5.54873
O         63.22146       83.71016        5.36321
H         62.63578       83.80483        8.64259
H         61.37918       85.85530        7.12430
H         61.11585       84.08797        6.97369
N         61.46003       84.98411        4.52827
C         61.87858       84.69574        3.12870
C         60.64423       84.36533        2.29103
O         59.54663       84.66205        2.74311
C         62.59781       85.92167        2.50738
C         63.85281       86.29602        3.23594
O         63.95887       87.40100        3.74311
O         64.87137       85.42088        3.32283
H         60.97888       85.91175        4.59630
H         62.52528       83.79549        3.11030
H         61.89765       86.78679        2.50925
H         62.87787       85.73682        1.45625
N         60.68984       83.78424        1.05066
C         61.86062       83.21939        0.39217
C         62.22745       81.88828        0.99892
O         61.37849       81.00794        1.01605
H         59.79822       83.69255        0.53821
H         62.70444       83.92874        0.35941
H         61.59443       82.99729       -0.66455
N         63.47206       81.66124        1.50777
C         63.86193       80.39033        2.11958
C         64.03390       80.59346        3.60960
O         64.20472       81.72041        4.03710
C         65.11946       79.81810        1.41595
C         65.58318       78.47177        1.98153
O         66.18558       80.72897        1.50247
H         64.15746       82.43233        1.49803
H         63.03917       79.65159        2.00269
H         64.85429       79.63454        0.34652
H         66.22777       81.22319        0.64242
H         64.76582       77.72242        1.92284
H         66.44724       78.09597        1.39317
H         65.91640       78.57605        3.03578
N         63.88542       79.53892        4.46444
C         63.86457       79.62403        5.92321
C         65.19100       80.14449        6.44426
O         65.45525       81.32924        6.32000
C         62.66432       80.48596        6.43411
C         61.32713       80.02405        5.79803
C         62.59367       80.47853        7.97346
C         60.15943       80.97377        6.08110
H         63.71926       78.60567        4.05965
H         63.71695       78.58572        6.29769
H         62.83148       81.52508        6.11560
H         61.07447       78.99677        6.13684
H         61.43312       80.00646        4.69242
H         63.54332       80.84682        8.41416
H         61.79726       81.15508        8.34273
H         62.40004       79.45161        8.34826
H         60.39925       81.99448        5.71137
H         59.25524       80.61540        5.54547
H         59.91662       81.02055        7.16056
N         66.08262       79.30893        7.03833
C         67.36639       79.76247        7.56339
C         68.54423       79.20873        6.77354
O         69.66399       79.56085        7.11457
C         67.47568       79.44635        9.07610
C         67.31145       77.96078        9.41261
O         66.49605       80.17074        9.77637
H         65.84975       78.30645        7.09529
H         67.46314       80.86708        7.46642
H         68.49299       79.74796        9.42694
H         66.93719       80.97761       10.15036
H         66.28872       77.60716        9.16566
H         68.05523       77.34562        8.86553
H         67.45721       77.81152       10.50323
N         68.39412       78.37493        5.69736
C         69.54603       77.90002        4.93337
C         70.21065       79.08599        4.24168
O         69.63405       79.60938        3.30077
C         69.10799       76.81786        3.90978
C         70.28891       76.24204        3.12131
O         68.46999       75.77178        4.59851
H         67.45337       78.06308        5.41885
H         70.25152       77.42278        5.64989
H         68.39107       77.28766        3.19361
H         67.82592       75.35577        3.96687
H         69.91992       75.47397        2.40775
H         70.80149       77.03464        2.53776
H         71.01768       75.76514        3.81024
N         71.40583       79.57964        4.69313
C         72.11553       80.73751        4.13887
C         71.30509       82.02441        4.20912
O         70.20427       82.08090        3.68473
C         72.61170       80.49452        2.70380
C         73.62558       79.34302        2.65464
C         74.28811       79.25231        1.27689
C         75.33798       78.13462        1.24747
N         76.01440       78.08859       -0.04790
H         71.84335       79.11634        5.50369
H         73.03215       80.89820        4.75030
H         73.13399       81.42210        2.37624
H         71.77076       80.30705        2.00266
H         73.12089       78.38520        2.90723
H         74.42511       79.53319        3.40533
H         74.79169       80.22007        1.05642
H         73.51694       79.06476        0.49878
H         74.84451       77.15726        1.44478
H         76.09532       78.31299        2.04396
H         76.71523       77.31282       -0.04041
H         75.32100       77.91497       -0.81107
H         76.51356       78.99137       -0.22284
N         71.83422       83.14280        4.78287
C         71.09624       84.39683        4.85655
C         69.94788       84.28015        5.84768
O         68.82147       84.51392        5.43364
C         72.00625       85.60406        5.17194
C         73.03586       85.84624        4.05801
C         73.85805       87.06744        4.35261
O         73.84681       88.01581        3.58410
O         74.61623       87.12074        5.46453
H         72.80070       83.11177        5.14134
H         70.67027       84.62432        3.85099
H         72.54147       85.48055        6.12711
H         71.36399       86.51074        5.24609
H         72.50483       85.98478        3.08980
H         73.71608       84.97412        3.96295
N         70.09425       83.91652        7.15733
C         71.33075       83.53984        7.80742
H         72.04068       84.38191        7.84621
H         71.12020       83.25660        8.86095
H         71.77990       82.65819        7.30905
H         69.25212       83.87286        7.74055
Ca        65.19129       84.07003        6.34882
O         67.42123       84.10220        2.61044
H         67.11819       84.65413        1.84661
H         68.38119       83.93811        2.43361
O         67.27193       81.60030        4.30591
H         67.99173       81.50459        4.97817
H         67.71135       81.42676        3.43826
O         66.71215       86.86458        5.92001
H         66.56290       87.18335        6.84497
H         66.00364       87.30817        5.39096

Ca 1.0



