%chk=apoCaM-CA-Ng.loop4.water3.frame161.chk
%nprocshared=20
%mem=10GB
%nosave
#b3lyp/svp scf=(tight,noincore,xqc) Test 
#IOP(5/87=12) Density=Current Pop=(MK,readradii) iop(6/33=2) iop(6/42=6)

apoCaM-CA-Ng.loop4.water3.frame161 

   -3  1 
C         57.69824       73.37271       33.76753
C         56.75828       74.22089       32.96727
O         56.47136       73.87587       31.83123
H         58.58181       73.97039       34.07044
H         57.17333       73.00443       34.67473
H         58.03680       72.49476       33.17630
N         56.20383       75.33387       33.52818
C         55.20692       76.18092       32.88194
C         53.97954       75.34872       32.54660
O         53.61573       75.22650       31.39156
C         55.81818       77.07124       31.76148
C         56.40483       76.39504       30.55557
O         55.68793       75.81286       29.76276
O         57.72311       76.50026       30.29983
H         56.45591       75.56289       34.50196
H         54.86189       76.92742       33.63272
H         56.62908       77.66493       32.23764
H         55.04930       77.79136       31.40591
N         53.32232       74.72973       33.57581
C         52.14171       73.86065       33.52367
C         50.88205       74.62434       33.11991
O         50.02909       74.80903       33.97802
C         52.38413       72.54750       32.72425
C         51.18212       71.56222       32.81534
C         53.67548       71.85046       33.19641
C         50.85127       71.05335       34.22769
H         53.71154       74.87840       34.52050
H         51.97762       73.54978       34.57921
H         52.52091       72.80122       31.65160
H         51.40307       70.67448       32.18403
H         50.27442       72.04691       32.39793
H         53.83840       70.90735       32.63391
H         54.55357       72.49930       33.02039
H         53.64192       71.62031       34.28138
H         51.70827       70.50892       34.67464
H         50.55168       71.88147       34.90103
H         49.99942       70.34392       34.17320
N         50.69361       75.12748       31.86571
C         49.55799       75.97512       31.52803
C         48.23872       75.18580       31.53826
O         47.40125       75.52290       32.36294
C         49.85662       76.78138       30.23963
C         48.75580       77.74631       29.90552
O         48.18565       77.67951       28.82855
O         48.40993       78.70677       30.78433
H         51.39768       74.96209       31.14121
H         49.49156       76.76083       32.31677
H         50.07439       76.13443       29.37591
H         50.78564       77.37052       30.40340
N         47.94048       74.13339       30.71210
C         48.82829       73.64605       29.67109
C         48.28016       72.49293       28.84286
O         47.17704       72.04125       29.11499
H         47.02273       73.68071       30.84097
H         49.77537       73.33336       30.14519
H         48.95112       74.46471       28.96853
N         48.96917       71.93345       27.79225
C         50.30907       72.29320       27.30959
C         51.31453       72.08651       28.42956
O         51.88300       73.05829       28.90769
C         50.36842       73.70760       26.67892
C         49.28910       73.90352       25.65127
O         48.38640       74.89150       25.80499
O         49.22274       73.17174       24.67657
H         48.51039       71.15240       27.29686
H         50.57448       71.62094       26.46627
H         51.35773       73.83951       26.19067
H         50.29900       74.51078       27.42685
N         51.54582       70.85964       28.97798
C         51.13204       69.59006       28.40560
C         49.97788       68.96868       29.13402
O         49.37597       69.60225       29.98991
H         52.11651       70.80670       29.83159
H         52.01164       68.91083       28.42937
H         50.83568       69.67662       27.34385
N         49.61046       67.69716       28.81104
C         48.44003       67.03231       29.37072
C         48.80121       66.03538       30.45559
O         47.88519       65.54377       31.10227
C         47.58110       66.40825       28.24550
C         48.29726       65.28769       27.45971
C         47.40665       64.70198       26.39492
N         46.95451       65.46430       25.37097
O         47.10297       63.51960       26.44786
H         50.20828       67.18152       28.14968
H         47.80880       67.79058       29.88433
H         47.28215       67.21986       27.54737
H         46.65505       65.98857       28.69617
H         48.60022       64.48435       28.16633
H         49.20792       65.66748       26.95460
H         47.21038       66.45963       25.29779
H         46.35181       65.05563       24.64130
N         50.09569       65.72451       30.75694
C         50.46981       64.91700       31.91373
C         51.09714       63.58921       31.53006
O         51.43828       62.84399       32.43674
C         51.39867       65.73024       32.86170
C         50.69014       66.99578       33.36757
C         52.74212       66.10573       32.21447
H         50.85386       66.10210       30.17216
H         49.56704       64.64582       32.50493
H         51.62120       65.09808       33.75004
H         49.74513       66.72315       33.88373
H         51.33704       67.53460       34.09217
H         50.45381       67.68449       32.52805
H         53.38152       66.62562       32.95890
H         53.28415       65.19869       31.87342
H         52.60528       66.78675       31.35029
N         51.24135       63.19625       30.22960
C         51.77576       61.88857       29.86867
C         53.01241       61.98828       28.99454
O         53.55915       60.93206       28.69574
C         50.68321       61.07684       29.14505
C         49.45267       60.87743       29.99283
N         49.51328       60.18892       31.15616
O         48.38373       61.33503       29.61645
H         50.92275       63.80784       29.46548
H         52.08392       61.32194       30.77339
H         51.07312       60.07578       28.85611
H         50.39391       61.62013       28.22485
H         50.40124       59.78478       31.48663
H         48.66546       60.05324       31.72644
N         53.54609       63.17403       28.55815
C         54.75213       63.19769       27.72822
C         55.39532       64.57326       27.65657
O         54.68790       65.57229       27.63884
C         54.53276       62.71771       26.25391
C         53.35013       61.81761       25.98881
C         53.50481       60.44323       25.74638
C         52.06169       62.38090       25.94986
C         52.38157       59.64334       25.49812
C         50.94734       61.58590       25.67903
C         51.09926       60.21431       25.46344
O         50.00825       59.45869       25.22588
H         53.13385       64.06473       28.87207
H         55.47853       62.51411       28.22501
H         55.48433       62.26305       25.89990
H         54.36725       63.58830       25.57919
H         54.48728       59.98932       25.76780
H         51.92347       63.44214       26.11967
H         52.50776       58.58127       25.33128
H         49.96317       62.03757       25.64883
H         50.06321       58.50347       25.08282
N         56.74081       64.67257       27.45050
C         57.45568       65.89920       27.09960
C         57.51073       66.94936       28.21457
O         58.14444       67.97209       28.00051
C         56.90202       66.43292       25.75069
C         57.81011       67.46177       25.05564
C         57.25662       67.84460       23.71217
O         57.09945       66.99891       22.84535
O         56.94496       69.12858       23.45219
H         57.29327       63.80043       27.44490
H         58.51208       65.60232       26.91079
H         55.88461       66.85763       25.88286
H         56.82624       65.56028       25.06282
H         58.82197       67.02500       24.90761
H         57.90357       68.38040       25.66565
N         56.95375       66.75440       29.44756
C         57.08978       67.71646       30.54226
C         57.94367       67.15773       31.67053
O         58.16893       67.88181       32.63201
C         55.70121       68.09455       31.09725
C         54.75797       68.76961       30.09388
C         55.21725       70.13964       29.68475
O         56.23885       70.29726       29.03721
O         54.46659       71.20442       30.01078
H         56.45396       65.87852       29.65192
H         57.61273       68.63509       30.20624
H         55.80849       68.77511       31.97191
H         55.21859       67.16109       31.45238
H         53.77303       68.88318       30.59811
H         54.60733       68.13401       29.19620
N         58.47030       65.90018       31.63735
C         59.28972       65.39219       32.71465
H         60.19626       66.02390       32.82894
H         58.71221       65.39486       33.66352
H         59.60542       64.35141       32.49122
H         58.29891       65.27409       30.83867
Ca        54.92903       73.25429       29.24428
O         54.15872       75.15147       26.89974
H         54.19762       74.42143       26.23206
H         53.25033       75.08547       27.28786
O         57.52522       73.36961       27.83096
H         58.04565       72.61717       28.20950
H         58.00886       74.18141       28.12648
O         54.43491       71.62832       26.69825
H         55.02604       70.83543       26.65795
H         53.51856       71.25478       26.68668

Ca 1.0



