%chk=apoCaM-CA-Ng.loop2.water4.frame1082.chk
%nprocshared=20
%mem=10GB
%nosave
#b3lyp/svp scf=(tight,noincore,xqc) Test 
#IOP(5/87=12) Density=Current Pop=(MK,readradii) iop(6/33=2) iop(6/42=6)

apoCaM-CA-Ng.loop2.water4.frame1082 

   -2  1 
C         36.50111       83.59157       37.79565
C         35.76615       84.28421       36.68009
O         35.64893       83.70010       35.61276
H         37.38727       84.18576       38.10024
H         35.81868       83.46063       38.66265
H         36.84745       82.58607       37.47492
N         35.20408       85.51950       36.82490
C         35.26414       86.32214       38.04325
C         35.91437       87.67351       37.74843
O         36.94314       87.66912       37.08711
C         33.85701       86.35076       38.68321
C         32.77719       86.87974       37.76911
O         31.86807       86.14583       37.41511
O         32.79060       88.15658       37.34698
H         34.67860       85.89891       36.02566
H         35.93055       85.84330       38.78649
H         33.86543       86.91803       39.63593
H         33.60002       85.29844       38.93856
N         35.41843       88.85872       38.22659
C         36.00715       90.16629       37.95352
C         35.94943       90.45474       36.46710
O         36.98007       90.62248       35.82883
C         37.42279       90.27835       38.54405
H         34.58382       88.86077       38.82542
H         35.39778       90.94447       38.46676
H         37.39125       90.07468       39.63548
H         38.13418       89.57329       38.07019
H         37.80921       91.30989       38.39612
N         34.73680       90.53448       35.85265
C         34.58306       90.75594       34.42239
C         33.15129       91.06528       34.04045
O         32.25527       90.30146       34.34307
C         35.11713       89.57398       33.57340
C         34.95112       88.16669       34.11762
O         35.96392       87.49740       34.24910
O         33.77916       87.57918       34.45259
H         33.88847       90.44319       36.43289
H         35.16980       91.65364       34.12675
H         36.21484       89.72631       33.46969
H         34.71085       89.64452       32.54052
N         32.88574       92.16041       33.27509
C         31.58615       92.43703       32.69281
C         31.14256       91.29922       31.79756
O         29.96841       90.96093       31.81070
H         33.65607       92.79592       33.01716
H         31.67737       93.34994       32.06585
H         30.82924       92.63778       33.48252
N         32.04107       90.64076       31.00720
C         31.66798       89.52594       30.13526
C         31.08433       88.35802       30.91926
O         31.16218       88.34148       32.13599
C         32.90532       89.01211       29.35717
C         33.54887       90.03971       28.45612
N         34.67184       89.71941       27.77313
O         33.06907       91.15777       28.33641
H         33.02606       90.94710       31.02865
H         30.89565       89.89007       29.42298
H         32.62442       88.14281       28.72443
H         33.66548       88.66948       30.09570
H         35.09398       88.78341       27.86533
H         35.12391       90.40871       27.15455
N         30.46373       87.34207       30.25714
C         29.91587       86.15520       30.89748
C         28.41345       86.09716       30.76649
O         27.81225       87.10473       30.42064
H         30.36639       87.40811       29.23281
H         30.16370       86.10247       31.97905
H         30.36155       85.28490       30.40080
N         27.69635       84.97483       31.06703
C         28.27269       83.66412       31.37171
C         28.85025       83.04582       30.10218
O         28.12713       82.91440       29.12510
C         27.18240       82.72673       31.95981
C         27.70965       81.30711       32.20972
O         26.73373       83.24168       33.18852
H         26.66751       85.05626       31.03670
H         29.05310       83.76649       32.15874
H         26.32745       82.62977       31.24893
H         26.04049       83.92294       32.99207
H         28.02023       80.82381       31.25879
H         28.57693       81.32885       32.90310
H         26.90801       80.68156       32.65615
N         30.14192       82.60890       30.06848
C         30.74472       81.93610       28.91556
C         30.40580       80.44636       29.00124
O         30.81719       79.83074       29.97459
C         32.29194       82.16018       28.93409
C         32.61302       83.67677       28.88122
C         32.98662       81.41929       27.77650
C         34.08014       84.01112       29.14085
H         30.70827       82.71007       30.92494
H         30.37006       82.39939       27.97994
H         32.68375       81.75080       29.89231
H         32.06217       84.19247       29.68301
H         32.28642       84.10433       27.90813
H         32.63592       81.80908       26.79759
H         34.08715       81.53260       27.83224
H         32.78400       80.32985       27.82987
H         34.74516       83.59654       28.35963
H         34.20420       85.11479       29.14883
H         34.38258       83.62139       30.13656
N         29.65072       79.76968       28.08111
C         29.01943       80.36673       26.90768
C         29.99227       80.48191       25.74352
O         31.07373       79.91034       25.79432
C         27.80262       79.51745       26.47276
C         26.80319       79.36930       27.58993
O         26.26597       80.35347       28.07275
O         26.50002       78.14588       28.06557
H         29.44529       78.77799       28.28704
H         28.62580       81.36678       27.17586
H         28.14848       78.50641       26.16146
H         27.29146       79.98967       25.60664
N         29.65583       81.21611       24.64578
C         30.49641       81.33084       23.45464
C         29.91447       82.38347       22.51351
O         28.75364       82.22720       22.14664
C         30.53269       79.98308       22.68643
C         31.38844       80.08887       21.44137
C         30.78858       80.20990       20.17407
C         32.79026       80.09681       21.53823
C         31.57795       80.35074       19.02865
C         33.57635       80.22178       20.38710
C         32.97065       80.35419       19.13450
H         28.76047       81.73068       24.67329
H         31.52704       81.60380       23.75745
H         29.48690       79.72975       22.40108
H         30.90060       79.14154       23.31047
H         29.71045       80.22041       20.07372
H         33.27235       80.00243       22.50298
H         31.10956       80.46172       18.05881
H         34.65577       80.22161       20.46570
H         33.57977       80.46132       18.24585
N         30.63365       83.43483       22.00526
C         32.05438       83.70843       22.22439
C         32.42726       84.12361       23.63807
O         31.58682       84.10424       24.52438
C         32.36773       84.82476       21.21882
C         31.38632       84.52535       20.10585
C         30.13073       84.25207       20.91969
H         32.62762       82.80458       21.92995
H         32.06702       85.80724       21.63879
H         33.43425       84.88205       20.91261
H         31.27981       85.33163       19.35066
H         31.70053       83.58412       19.59647
H         29.73577       85.20369       21.34077
H         29.35361       83.75759       20.29654
N         33.71687       84.48779       23.90646
C         34.22393       84.78343       25.24346
C         35.75764       84.83686       25.22784
O         36.33297       85.84545       25.60766
C         33.56402       86.05703       25.86668
C         33.81783       87.40991       25.16451
C         33.24673       87.47775       23.78308
O         31.91937       87.35037       23.59950
O         33.97511       87.68557       22.82549
H         34.38269       84.49678       23.12017
H         33.96407       83.92943       25.90521
H         33.94561       86.15539       26.90576
H         32.46787       85.90975       25.95109
H         34.89855       87.64742       25.13397
H         33.33328       88.21044       25.76364
N         36.52294       83.77758       24.83059
C         35.99901       82.49341       24.41007
H         35.39071       82.58300       23.49032
H         36.84061       81.80825       24.17415
H         35.39383       82.04236       25.22323
H         37.54971       83.88248       24.85122
Ca        31.54968       87.85977       34.76195
O         29.10179       89.74479       34.27539
H         28.94915       90.71774       34.17743
H         28.26177       89.40408       34.67144
O         31.99674       85.19107       33.67912
H         31.34919       84.47238       33.88869
H         32.83581       84.71915       33.45043
O         29.43822       88.71452       37.10796
H         29.75309       88.08874       37.80707
H         30.03124       89.50305       37.19255
O         29.03919       86.30914       34.71856
H         28.71181       85.37837       34.79507
H         28.23816       86.87001       34.87139

Ca 1.0



