%chk=apoCaM-CA-Ng.loop4.water3.frame387.chk
%nprocshared=20
%mem=10GB
%nosave
#b3lyp/svp scf=(tight,noincore,xqc) Test 
#IOP(5/87=12) Density=Current Pop=(MK,readradii) iop(6/33=2) iop(6/42=6)

apoCaM-CA-Ng.loop4.water3.frame387 

   -3  1 
C         33.06133      104.83590       18.73493
C         34.07504      105.92999       18.59973
O         34.11557      106.56411       17.55771
H         32.44710      104.75548       17.81131
H         33.57605      103.86907       18.90924
H         32.38752      105.05811       19.58855
N         34.90934      106.22652       19.63944
C         35.90071      107.29832       19.62556
C         35.24292      108.63336       19.33810
O         35.25005      109.07194       18.20312
C         37.16506      106.96366       18.78814
C         36.96795      106.64014       17.33179
O         36.55435      107.48040       16.55109
O         37.30332      105.41957       16.87105
H         34.80495      105.68894       20.51355
H         36.31841      107.38648       20.65460
H         37.63827      106.07520       19.26116
H         37.88789      107.80542       18.87097
N         34.57721      109.27894       20.34188
C         33.84023      110.54199       20.24889
C         34.76975      111.74742       20.10208
O         34.79350      112.56036       21.01684
C         32.70024      110.50219       19.18772
C         31.82458      111.78865       19.19885
C         31.81962      109.24956       19.36074
C         31.07689      112.06627       20.51046
H         34.55915      108.81638       21.26446
H         33.34493      110.66081       21.23780
H         33.15542      110.43647       18.17997
H         31.06978      111.71004       18.38670
H         32.45821      112.67169       18.97456
H         32.42082      108.32626       19.23544
H         31.35348      109.21603       20.36673
H         31.02177      109.23064       18.58807
H         30.38711      111.23707       20.76761
H         31.77992      112.23543       21.35079
H         30.46841      112.98769       20.39654
N         35.56896      111.94133       19.01174
C         36.47257      113.07536       18.89293
C         35.69819      114.37700       18.76166
O         35.90949      115.22728       19.61578
C         37.50660      112.87516       17.76433
C         38.41926      111.71485       18.07553
O         38.49867      110.76560       17.31370
O         39.16877      111.72770       19.19550
H         35.56332      111.27052       18.24275
H         37.08164      113.13925       19.82555
H         38.14328      113.78312       17.68773
H         37.01565      112.71064       16.78824
N         34.77301      114.65846       17.79265
C         34.34707      113.77784       16.69862
C         33.20598      114.39369       15.88405
O         32.75853      115.47244       16.24906
H         34.33504      115.58726       17.88000
H         33.98381      112.82876       17.12672
H         35.20410      113.60342       16.03045
N         32.62861      113.83950       14.77128
C         32.91306      112.60383       14.03975
C         32.61937      111.31155       14.83047
O         33.65296      110.95232       15.69772
C         34.29598      112.60056       13.36654
C         34.42925      111.45633       12.38813
O         34.60042      111.68458       11.20157
O         34.35595      110.17815       12.80842
H         31.86288      114.39615       14.35578
H         32.19844      112.60160       13.18828
H         35.10741      112.53404       14.11245
H         34.41162      113.55588       12.80941
N         31.32529      111.30866       15.52531
C         30.17130      111.35573       14.60583
C         29.34115      112.57784       14.88937
O         29.67658      113.33018       15.79527
H         31.25792      110.42827       16.08867
H         29.52152      110.46748       14.76313
H         30.46834      111.33531       13.53687
N         28.20327      112.81588       14.17457
C         27.29471      113.91416       14.49373
C         26.02699      113.39724       15.16652
O         25.32440      114.20229       15.76103
C         27.11857      114.87962       13.29976
C         26.54566      114.29217       11.99859
C         25.09344      113.92753       12.09298
N         24.16492      114.87160       12.37113
O         24.74558      112.77839       11.87754
H         27.94776      112.15582       13.42437
H         27.75779      114.53848       15.28905
H         28.13511      115.25782       13.05273
H         26.51742      115.75881       13.61632
H         27.15205      113.41969       11.67587
H         26.63130      115.06346       11.20261
H         24.43581      115.85221       12.53159
H         23.16739      114.62878       12.40807
N         25.74931      112.05836       15.23538
C         24.80909      111.47610       16.19285
C         23.60255      110.80894       15.55632
O         22.76483      110.32808       16.30947
C         25.56821      110.45751       17.10745
C         26.65124      111.15880       17.93938
C         26.20082      109.28371       16.32618
H         26.29279      111.40310       14.66345
H         24.38843      112.27151       16.84630
H         24.83658      110.02404       17.82469
H         27.14338      110.43025       18.61948
H         27.42905      111.61001       17.28706
H         26.19485      111.95682       18.56186
H         27.01600      109.61938       15.65207
H         26.65085      108.55781       17.03541
H         25.43876      108.74656       15.72415
N         23.42315      110.73345       14.20914
C         22.27200      110.07379       13.60399
C         22.68277      108.86050       12.79034
O         21.78699      108.20399       12.28130
C         21.49906      111.06573       12.70656
C         20.90111      112.21127       13.48369
N         19.96727      111.99081       14.43794
O         21.24134      113.35497       13.23044
H         24.12893      111.14057       13.58260
H         21.57659      109.68928       14.38129
H         20.65983      110.54469       12.19647
H         22.18568      111.45404       11.92136
H         19.64655      111.03667       14.65512
H         19.55179      112.78141       14.95288
N         23.99027      108.47867       12.62752
C         24.35803      107.33197       11.79520
C         25.84268      106.98376       11.85468
O         26.65747      107.75811       12.33431
C         23.94192      107.59360       10.31540
C         24.41821      108.94891        9.81523
C         23.48082      109.96441        9.54673
C         25.78380      109.22736        9.63207
C         23.90249      111.22917        9.12516
C         26.20394      110.49132        9.20963
C         25.26795      111.49767        8.95941
O         25.69132      112.71533        8.56452
H         24.73595      109.00767       13.09600
H         23.82521      106.43950       12.19225
H         22.83608      107.56831       10.25610
H         24.28724      106.78216        9.64019
H         22.42097      109.78581        9.67916
H         26.53052      108.47436        9.81368
H         23.16749      112.00118        8.93523
H         27.26083      110.68894        9.08146
H         25.07710      113.44302        8.39194
N         26.23824      105.78284       11.33464
C         27.61057      105.31893       11.14125
C         28.42552      105.10640       12.41789
O         29.53508      104.60809       12.29696
C         28.30825      106.22613       10.09298
C         29.66826      105.72977        9.55259
C         29.63125      104.41022        8.81641
O         30.77754      103.90364        8.32532
O         28.58834      103.80206        8.63478
H         25.49937      105.15384       10.98395
H         27.51880      104.30773       10.69678
H         28.45815      107.23457       10.53200
H         27.62905      106.32943        9.21723
H         30.40551      105.66848       10.37488
H         30.05036      106.49012        8.83926
N         27.94580      105.36288       13.66983
C         28.70315      105.04120       14.87824
C         28.04218      103.89610       15.63181
O         28.58286      103.48268       16.64899
C         28.80610      106.27147       15.79800
C         29.39822      107.51262       15.12878
C         30.84092      107.38291       14.74928
O         31.19484      107.62085       13.60512
O         31.76416      107.20599       15.71192
H         26.99629      105.73685       13.79481
H         29.73391      104.70820       14.62584
H         29.40998      106.02360       16.70018
H         27.78220      106.53846       16.13594
H         29.33985      108.34712       15.85993
H         28.78991      107.79723       14.24393
N         26.87983      103.32205       15.20093
C         26.25060      102.23314       15.91037
H         25.31627      101.93636       15.38705
H         26.93454      101.35958       15.94213
H         25.99443      102.55183       16.94251
H         26.40765      103.65070       14.34767
Ca        33.42445      108.70257       15.56917
O         36.45027      110.27751       14.82961
H         37.06205      110.95588       14.44805
H         36.47870      110.42997       15.80581
O         34.43516      106.06068       13.63992
H         33.49336      106.11701       13.34131
H         34.45725      105.28253       14.25150
O         36.87716      107.69453       13.50266
H         37.56509      108.35652       13.24132
H         37.39047      106.94230       13.89106

Ca 1.0



