%chk=apoCaM-CA-Ng.loop4.water5.frame725.chk
%nprocshared=20
%mem=10GB
%nosave
#b3lyp/svp scf=(tight,noincore,xqc) Test 
#IOP(5/87=12) Density=Current Pop=(MK,readradii) iop(6/33=2) iop(6/42=6)

apoCaM-CA-Ng.loop4.water5.frame725 

   -3  1 
C         80.37430       92.82402      -16.70706
C         80.42961       92.80501      -18.20806
O         79.96724       91.84147      -18.80100
H         80.84430       93.74191      -16.29425
H         79.31897       92.78237      -16.36698
H         80.92197       91.94427      -16.30655
N         80.99399       93.84433      -18.89104
C         81.15758       93.90278      -20.34569
C         79.81186       93.83475      -21.05722
O         79.73486       93.27905      -22.14489
C         82.11176       92.78336      -20.82844
C         83.31114       92.67634      -19.94118
O         84.17024       93.54080      -19.90360
O         83.26243       91.69003      -19.03199
H         81.35517       94.64601      -18.35156
H         81.63048       94.87911      -20.58941
H         82.39295       92.87850      -21.89859
H         81.57512       91.82301      -20.71584
N         78.68794       94.34317      -20.47292
C         77.35939       94.20855      -21.07432
C         77.29208       94.94941      -22.41856
O         78.20882       95.70787      -22.70434
C         76.24478       94.69442      -20.08125
C         76.36052       96.20961      -19.77016
C         76.24160       93.82649      -18.80532
C         75.17444       96.75519      -18.97367
H         78.78310       94.78896      -19.55096
H         77.20711       93.12353      -21.26734
H         75.25759       94.54439      -20.54625
H         76.37887       96.77191      -20.72769
H         77.29789       96.43383      -19.22074
H         76.12904       92.75506      -19.07623
H         77.17468       93.94383      -18.21814
H         75.38686       94.08315      -18.14855
H         75.11321       96.29694      -17.96678
H         75.29583       97.85076      -18.84129
H         74.22673       96.56980      -19.52363
N         76.26789       94.81712      -23.31826
C         75.12320       93.91935      -23.17921
C         75.02592       92.88229      -24.28565
O         74.27046       91.93808      -24.10376
C         73.81320       94.73768      -23.06904
C         73.45868       95.58417      -24.27035
O         74.14463       95.59077      -25.28003
O         72.35240       96.34974      -24.22535
H         76.32157       95.40415      -24.16326
H         75.22996       93.31589      -22.26211
H         73.89887       95.41850      -22.19604
H         72.96362       94.04699      -22.88575
N         75.73353       92.96856      -25.44982
C         75.64124       91.96667      -26.49657
C         74.22798       91.82321      -27.02399
O         73.67346       92.78212      -27.54181
H         76.36563       93.76187      -25.61883
H         76.00889       90.99858      -26.09266
H         76.30542       92.24981      -27.34133
N         73.59951       90.61777      -26.93718
C         72.26564       90.33853      -27.46882
C         71.12261       91.12356      -26.82148
O         70.01361       91.00183      -27.32435
C         71.98292       88.80579      -27.43451
C         72.32569       88.10392      -26.13466
O         71.74445       88.43741      -24.97294
O         73.16294       87.21544      -26.13554
H         74.13433       89.84273      -26.51942
H         72.25396       90.63492      -28.54158
H         72.61540       88.33795      -28.21997
H         70.92475       88.60273      -27.70932
N         71.27329       91.93871      -25.73486
C         70.15629       92.66086      -25.12875
C         69.10969       91.75415      -24.49089
O         68.12021       92.26998      -23.99276
H         72.19970       92.07103      -25.31951
H         69.67576       93.29760      -25.90334
H         70.54473       93.33009      -24.33017
N         69.27001       90.39923      -24.45620
C         68.34399       89.42119      -23.90163
C         68.23170       89.48225      -22.38650
O         67.49713       88.66820      -21.84181
C         66.97409       89.46287      -24.61543
C         67.14196       89.31587      -26.14136
C         65.84209       89.18769      -26.89396
N         65.86220       89.07249      -28.24229
O         64.77242       89.17865      -26.30217
H         70.10597       89.99974      -24.86976
H         68.76744       88.41162      -24.11150
H         66.43011       90.40393      -24.38814
H         66.36619       88.61040      -24.23899
H         67.74871       88.41043      -26.36054
H         67.67660       90.20597      -26.53200
H         66.75607       89.08077      -28.75632
H         64.98548       88.97590      -28.77533
N         68.95754       90.36003      -21.62867
C         68.90430       90.38785      -20.17092
C         70.26052       90.08972      -19.54021
O         70.31690       90.04624      -18.32067
C         68.35959       91.75501      -19.66644
C         69.30856       92.92967      -19.96575
C         66.97005       92.03926      -20.25265
H         69.58660       91.03111      -22.08678
H         68.20987       89.60214      -19.79897
H         68.24937       91.69224      -18.56059
H         68.89254       93.86948      -19.54554
H         70.29464       92.76355      -19.48603
H         69.45793       93.06972      -21.05582
H         66.56279       92.98217      -19.83040
H         67.01940       92.14277      -21.35755
H         66.27095       91.21380      -20.00138
N         71.39332       89.89417      -20.28687
C         72.70400       89.67705      -19.68145
C         73.26317       88.32163      -20.07106
O         72.68467       87.62025      -20.88444
C         73.66460       90.80656      -20.10731
C         73.16925       92.16059      -19.66892
N         73.03417       92.45923      -18.35621
O         72.89551       93.00224      -20.50956
H         71.35352       89.91918      -21.31387
H         72.62478       89.67402      -18.57389
H         73.76789       90.79098      -21.21558
H         74.67235       90.65371      -19.66559
H         73.27281       91.76958      -17.62943
H         72.69964       93.38973      -18.06492
N         74.38866       87.87651      -19.44379
C         74.97290       86.55595      -19.68052
C         75.92783       86.17203      -18.55027
O         76.09221       86.93520      -17.61228
C         75.65708       86.47358      -21.06465
C         76.84318       87.39469      -21.20406
C         76.65864       88.77533      -21.37688
C         78.14845       86.87274      -21.18580
C         77.75844       89.61827      -21.54148
C         79.24817       87.71876      -21.33704
C         79.05638       89.08867      -21.52597
O         80.12385       89.88412      -21.70678
H         74.79056       88.48916      -18.72237
H         74.15909       85.79961      -19.64503
H         74.94020       86.67274      -21.88930
H         75.99108       85.42698      -21.21779
H         75.66558       89.19656      -21.41016
H         78.31754       85.81189      -21.05060
H         77.60037       90.67922      -21.68987
H         80.25008       87.30830      -21.32038
H         80.01446       90.82225      -21.90059
N         76.57302       84.96626      -18.56717
C         77.41698       84.51753      -17.46960
C         78.85527       84.41850      -17.96356
O         79.13715       83.51594      -18.73795
C         76.86220       83.16754      -16.96804
C         77.54796       82.64454      -15.70360
C         76.96080       81.31971      -15.30226
O         77.74545       80.22766      -15.23265
O         75.77187       81.22485      -15.03920
H         76.45328       84.33394      -19.36957
H         77.34860       85.23275      -16.63216
H         76.94837       82.41152      -17.78119
H         75.78034       83.30057      -16.74258
H         77.40105       83.37007      -14.87486
H         78.63620       82.52102      -15.88642
N         79.82258       85.34001      -17.65596
C         79.60037       86.55385      -16.86825
C         79.35349       86.26387      -15.39885
O         79.51563       85.13088      -14.96658
C         80.77545       87.55300      -17.03247
C         82.12633       87.05393      -16.47551
C         83.20036       88.06576      -16.75386
O         84.10305       87.80525      -17.53308
O         83.15010       89.28112      -16.18120
H         80.73887       85.20952      -18.11056
H         78.70586       87.06027      -17.29135
H         80.51362       88.51326      -16.53597
H         80.88764       87.76774      -18.11938
H         82.40419       86.10202      -16.97007
H         82.06564       86.87708      -15.38088
N         78.94566       87.26878      -14.57353
C         78.69223       87.09455      -13.15836
H         77.63078       87.33806      -12.94258
H         78.89320       86.05813      -12.81584
H         79.34265       87.78669      -12.58375
H         78.79218       88.21026      -14.96553
Ca        84.25225       90.97698      -17.16614
O         87.60614       89.67142      -16.40869
H         87.94021       90.00439      -15.53823
H         88.17871       88.88922      -16.61055
O         86.39457       92.32760      -14.95815
H         86.71352       93.25597      -15.08414
H         86.75236       92.06158      -14.07422
O         86.37816       90.02552      -19.36047
H         87.01456       89.26716      -19.33959
H         86.89029       90.76863      -19.76779
O         84.97684       89.77064      -14.06583
H         84.12959       89.41293      -13.69879
H         85.68248       89.37108      -13.49891
O         86.14737       93.56739      -17.80142
H         86.51590       93.32577      -18.68793
H         86.73096       94.30032      -17.48239

Ca 1.0



