%chk=apoCaM-CA-Ng.loop1.water3.frame79.chk
%nprocshared=20
%mem=10GB
%nosave
#b3lyp/svp scf=(tight,noincore,xqc) Test 
#IOP(5/87=12) Density=Current Pop=(MK,readradii) iop(6/33=2) iop(6/42=6)

apoCaM-CA-Ng.loop1.water3.frame79 

   0  1 
C         52.51637       44.41556       61.13263
C         51.13306       44.56609       61.70004
O         50.88094       45.54624       62.38499
H         53.25382       44.35018       61.96048
H         52.60545       43.49744       60.51365
H         52.75781       45.29278       60.49771
N         50.19190       43.60634       61.47893
C         48.83902       43.65109       62.02833
C         48.64969       42.58525       63.10109
O         47.52698       42.39873       63.55039
C         47.78811       43.52843       60.89938
C         47.74712       42.18288       60.22188
O         48.70440       41.76814       59.58988
O         46.62583       41.43948       60.28754
H         50.46721       42.77508       60.93650
H         48.65010       44.63060       62.51982
H         47.96142       44.32226       60.14113
H         46.78504       43.70825       61.34212
N         49.71429       41.89301       63.60323
C         49.62744       40.86767       64.63204
C         50.33364       41.35203       65.89246
O         51.48565       41.74964       65.77680
C         50.31755       39.58053       64.12310
C         49.58377       38.89214       62.95637
C         48.28018       38.21515       63.42095
C         47.56903       37.41861       62.31898
N         46.99680       38.29045       61.29347
H         50.66365       42.11117       63.26669
H         48.58431       40.63903       64.85759
H         50.41953       38.84383       64.95035
H         51.34696       39.84486       63.79305
H         50.25046       38.09109       62.56871
H         49.40748       39.62148       62.13853
H         47.56455       38.95706       63.82301
H         48.54407       37.49776       64.22986
H         46.74031       36.84571       62.79237
H         48.26969       36.68630       61.86016
H         47.74464       38.82150       60.79532
H         46.48352       37.70262       60.59799
H         46.31792       38.95483       61.73258
N         49.78476       41.32134       67.15045
C         48.46672       40.81149       67.53740
C         48.26295       39.37738       67.05099
O         47.34680       39.13308       66.28019
C         47.32842       41.77182       67.12094
C         47.39886       43.11317       67.80406
O         46.50730       43.92409       67.61828
O         48.40949       43.42627       68.63909
H         50.38849       41.63439       67.92742
H         48.40931       40.77686       68.64859
H         46.36774       41.30842       67.42190
H         47.29698       41.93040       66.03013
N         49.05694       38.34910       67.45771
C         50.08082       38.51564       68.47334
C         50.80787       37.23426       68.81756
O         50.59967       36.22155       68.16505
H         48.86821       37.41483       67.06417
H         49.56554       38.87644       69.37690
H         50.83994       39.25411       68.14561
N         51.71556       37.18153       69.83313
C         52.04784       38.30449       70.70816
C         50.85417       38.77478       71.55147
O         50.29813       37.99946       72.31537
C         53.26714       37.96018       71.60587
C         53.14257       36.75052       72.50437
O         52.13899       36.05613       72.51611
O         54.18116       36.41451       73.29258
H         52.21263       36.28700       69.96848
H         52.39137       39.15066       70.07238
H         53.50060       38.84459       72.23778
H         54.14221       37.78109       70.94313
N         50.44901       40.07796       71.48434
C         49.43877       40.67499       72.35035
C         47.99469       40.27666       72.08864
O         47.70421       39.47595       71.21205
H         50.96045       40.71852       70.85853
H         49.48039       41.77696       72.21345
H         49.69983       40.45917       73.40951
N         47.02768       40.85236       72.86612
C         45.58693       40.59770       72.77373
C         45.01073       41.09873       71.45207
O         45.16367       42.26659       71.12163
C         44.83648       41.27785       73.94831
C         45.25466       40.68731       75.30396
O         43.45317       41.08647       73.78824
H         47.35328       41.50773       73.59311
H         45.40713       39.50348       72.87191
H         45.07005       42.36921       73.92575
H         43.00123       41.81684       74.28691
H         45.01566       39.60234       75.33938
H         46.33902       40.81686       75.49513
H         44.70125       41.19519       76.12162
N         44.31838       40.23881       70.65505
C         43.77413       40.57970       69.34105
C         42.49681       41.40906       69.45072
O         41.54302       40.92574       70.04725
C         43.43252       39.27095       68.54891
C         44.66895       38.34075       68.42126
C         42.88031       39.62096       67.14922
C         44.33741       36.97049       67.82659
H         44.21856       39.26945       70.98892
H         44.54841       41.11955       68.75823
H         42.64611       38.72106       69.11407
H         45.10804       38.12914       69.41510
H         45.44773       38.84021       67.81720
H         43.64273       40.16894       66.55424
H         42.56459       38.71911       66.59108
H         41.97731       40.25436       67.23469
H         43.56835       36.46394       68.44937
H         43.97435       37.04626       66.78361
H         45.25243       36.34236       67.81907
N         42.36509       42.59977       68.78691
C         41.07086       43.27527       68.61781
C         40.65962       43.38990       67.14008
O         39.54076       43.81230       66.88898
C         41.06360       44.67409       69.28735
C         41.98003       45.69851       68.59902
O         41.37197       44.56773       70.65474
H         43.19819       42.99966       68.33011
H         40.27533       42.67759       69.11427
H         40.03128       45.08383       69.21621
H         42.33862       44.35574       70.73322
H         43.03056       45.35371       68.60547
H         41.66975       45.85965       67.54659
H         41.91215       46.67502       69.12396
N         41.51686       43.07702       66.11676
C         41.24139       43.23343       64.68649
C         40.98514       44.68173       64.28417
O         40.68136       45.52585       65.11587
C         40.13379       42.27665       64.17076
C         40.54203       40.81446       64.34396
O         39.90596       42.49100       62.79868
H         42.45882       42.73278       66.33732
H         42.18465       42.95331       64.16135
H         39.19726       42.45470       64.74961
H         38.95329       42.74707       62.68446
H         40.69782       40.57653       65.41078
H         39.74527       40.14980       63.94918
H         41.47963       40.60949       63.78058
N         41.20669       45.03986       62.98847
C         41.10695       46.40078       62.47449
C         42.47653       47.05328       62.34933
O         42.54298       48.20621       61.95160
C         40.28663       46.44398       61.15833
C         40.96892       45.99325       59.84068
C         41.53948       44.57162       59.83917
C         42.00298       44.13503       58.44594
N         42.60521       42.80192       58.50141
H         41.56436       44.30374       62.37522
H         40.54277       47.01619       63.21059
H         39.98533       47.50086       60.98352
H         39.35101       45.86402       61.31670
H         41.78785       46.69873       59.58010
H         40.19317       46.06809       59.04670
H         40.76406       43.85650       60.19175
H         42.43151       44.54872       60.49734
H         42.75222       44.85784       58.05390
H         41.13069       44.11852       57.75515
H         42.89198       42.51208       57.53906
H         43.45266       42.81759       59.11522
H         41.91700       42.10783       58.87442
N         43.60898       46.39954       62.75224
C         44.91676       47.03533       62.78635
C         45.42995       47.31357       61.39267
O         45.57962       46.38644       60.60816
C         45.93820       46.16553       63.55341
C         45.57153       45.86371       65.02156
C         45.31238       47.10304       65.83909
O         46.18624       47.50813       66.78013
O         44.28850       47.74559       65.66783
H         43.53794       45.44305       63.12034
H         44.83455       47.99597       63.33306
H         46.91401       46.69972       63.55349
H         46.07930       45.19556       63.03129
H         46.43316       45.31244       65.44824
H         44.68604       45.19597       65.09997
N         45.75237       48.58508       61.02872
C         46.29135       48.90234       59.72626
H         47.24635       48.35632       59.57004
H         45.56506       48.62167       58.93552
H         46.49333       49.99278       59.65938
H         45.63005       49.35549       61.70334
Ca        48.17026       46.49927       67.16057
O         49.75701       44.78518       65.24629
H         50.30489       44.78822       66.07078
H         48.93084       44.30212       65.49989
O         48.56026       46.09176       70.51732
H         48.37599       45.23252       70.97375
H         49.48667       46.31997       70.78234
O         45.46293       46.37864       69.27461
H         44.76993       47.03644       69.01300
H         45.00118       45.76085       69.89452

Ca 1.0



