%chk=apoCaM-CA-Ng.loop2.water2.frame947.chk
%nprocshared=20
%mem=10GB
%nosave
#b3lyp/svp scf=(tight,noincore,xqc) Test 
#IOP(5/87=12) Density=Current Pop=(MK,readradii) iop(6/33=2) iop(6/42=6)

apoCaM-CA-Ng.loop2.water2.frame947 

   -2  1 
C         72.99855       94.51678       55.28535
C         71.55654       94.15869       55.49737
O         71.10393       93.17429       54.93073
H         73.64035       93.67486       55.62055
H         73.18193       94.70953       54.20818
H         73.28160       95.42299       55.86161
N         70.76924       94.91360       56.31398
C         69.37239       94.59493       56.58928
C         69.28685       93.22791       57.24806
O         68.56398       92.37478       56.75487
C         68.74719       95.69060       57.48615
C         67.26148       95.54079       57.70670
O         66.63088       94.62206       57.20685
O         66.61274       96.45535       58.45192
H         71.18579       95.74319       56.76548
H         68.80867       94.59502       55.62845
H         68.90175       96.67655       56.99584
H         69.25887       95.71165       58.47223
N         70.04315       92.95384       58.35052
C         70.07289       91.66391       59.03878
C         71.06313       91.75077       60.19861
O         72.23458       91.97673       59.92492
C         70.52422       90.52967       58.10150
H         70.63957       93.71400       58.71411
H         69.04780       91.43186       59.38328
H         69.82187       90.38537       57.25780
H         71.53155       90.74241       57.68337
H         70.56269       89.57090       58.66144
N         70.72105       91.63849       61.51589
C         69.36996       91.40487       62.01825
C         69.19437       91.92417       63.44329
O         70.15309       92.35423       64.06861
C         68.98140       89.91150       61.88597
C         69.90197       88.99032       62.64473
O         69.41731       88.21221       63.63070
O         71.08289       88.91238       62.34464
H         71.48170       91.78609       62.19556
H         68.66863       92.03656       61.43346
H         69.00168       89.60346       60.82062
H         67.94253       89.76922       62.25206
N         67.94189       92.01141       63.97194
C         67.64851       92.64969       65.24412
C         66.69791       91.81216       66.06313
O         65.55569       92.22709       66.20097
H         67.14023       91.71156       63.39570
H         67.12655       93.60188       65.00160
H         68.55583       92.92238       65.82086
N         67.02818       90.62331       66.64043
C         68.35489       90.01659       66.65699
C         69.29181       90.86577       67.50667
O         68.93564       91.18361       68.63353
C         68.23676       88.59697       67.26315
C         69.48339       87.75452       67.17236
N         69.49148       86.51897       67.72157
O         70.47600       88.16373       66.59306
H         66.26541       90.12237       67.12512
H         68.72304       89.90468       65.61464
H         67.44529       88.03898       66.71714
H         67.93067       88.68149       68.32889
H         68.65807       86.15452       68.20453
H         70.32937       85.92469       67.67316
N         70.51209       91.25082       67.04027
C         71.42068       92.11504       67.78107
C         72.68985       91.41794       68.22697
O         73.54760       92.10250       68.76669
H         70.81578       90.91927       66.11560
H         70.94145       92.52986       68.69409
H         71.68231       92.97377       67.12600
N         72.87202       90.07031       68.09194
C         74.06512       89.36992       68.56090
C         74.72255       88.58194       67.40779
O         74.49147       89.16578       66.16244
C         73.67649       88.38660       69.69486
C         73.10975       89.12247       70.91047
O         72.71076       87.46994       69.24191
H         72.12905       89.50264       67.67326
H         74.81141       90.09766       68.95009
H         74.57612       87.83730       70.05535
H         73.19042       86.76572       68.73392
H         73.86185       89.83162       71.31576
H         72.18848       89.68238       70.64254
H         72.85183       88.38914       71.70442
N         76.15633       88.36867       67.62815
C         76.81232       87.57929       66.56534
C         76.47151       86.09823       66.71642
O         76.75728       85.52852       67.76070
C         78.34325       87.85935       66.60813
C         79.07511       87.10185       65.46923
C         78.58720       89.38252       66.49864
C         80.59244       87.30209       65.46357
H         76.34047       87.94587       68.56732
H         76.46954       87.93184       65.56811
H         78.74372       87.51458       67.58765
H         78.67477       87.42016       64.48351
H         78.89221       86.01504       65.58496
H         78.07493       89.92964       67.31759
H         79.66116       89.63270       66.59773
H         78.21010       89.76974       65.52737
H         81.02750       86.99175       66.43680
H         81.04148       86.68550       64.65700
H         80.86260       88.35730       65.25612
N         75.86007       85.41637       65.70130
C         75.47522       84.00979       65.78451
C         76.25022       83.18830       64.76108
O         75.64445       82.50249       63.94633
C         73.95622       83.87256       65.53831
C         73.10081       84.53929       66.56930
O         73.08449       84.12029       67.71551
O         72.28398       85.55052       66.22053
H         75.65519       85.91345       64.82308
H         75.71807       83.58720       66.78454
H         73.66717       82.79800       65.53124
H         73.72149       84.29963       64.53992
N         77.61206       83.19961       64.75847
C         78.41478       82.36833       63.86936
C         79.19241       83.23159       62.87880
O         79.96978       84.06812       63.31916
C         79.40422       81.52763       64.70738
C         80.30179       80.69179       63.82104
C         81.66644       81.00933       63.70668
C         79.78435       79.61616       63.07863
C         82.49337       80.27656       62.85160
C         80.61747       78.88097       62.22822
C         81.96961       79.21422       62.11149
H         78.10276       83.81388       65.42488
H         77.76653       81.65634       63.32328
H         78.86486       80.86933       65.42312
H         80.02249       82.23097       65.30795
H         82.08656       81.83843       64.26212
H         78.73660       79.35230       63.15149
H         83.53934       80.53821       62.75809
H         80.21401       78.05721       61.65361
H         82.61169       78.65118       61.44656
N         79.10389       83.03749       61.52353
C         79.99724       83.66049       60.55752
C         79.51778       85.02313       60.07842
O         80.13303       85.55140       59.16194
C         79.97578       82.64679       59.40545
C         78.51906       82.22941       59.39503
C         78.25768       82.04235       60.88419
H         81.04199       83.74031       60.93248
H         80.37686       83.01611       58.43773
H         80.57334       81.75502       59.70906
H         77.92190       83.09528       59.02946
H         78.27319       81.34268       58.77347
H         77.17672       82.17701       61.10584
H         78.59311       81.03505       61.19917
N         78.42731       85.64663       60.61272
C         77.89556       86.89562       60.06861
C         78.85722       88.08200       60.12881
O         78.51004       89.11445       59.57107
C         76.54780       87.25506       60.73210
C         76.65833       87.58563       62.22900
C         75.30523       87.92510       62.77652
O         74.31266       87.01640       62.73163
O         75.09669       89.02479       63.26111
H         77.91492       85.18359       61.37543
H         77.67898       86.70837       58.99291
H         75.85068       86.39869       60.59424
H         76.11109       88.13237       60.20496
H         77.34427       88.44846       62.37547
H         77.05762       86.71991       62.79575
N         80.06684       88.02643       60.76032
C         81.00312       89.13440       60.77602
H         81.95238       88.81747       60.29448
H         80.62382       90.02426       60.23009
H         81.21121       89.42942       61.82483
H         80.35993       87.17202       61.25212
Ca        73.16825       87.47183       65.45778
O         71.62961       85.58696       62.90176
H         70.83813       85.38287       62.34337
H         72.31209       84.93105       62.61126
O         72.92705       90.70983       64.53094
H         73.36798       91.25197       63.83099
H         72.05072       90.46466       64.14587

Ca 1.0



