%chk=apoCaM-CA-Ng.loop3.water2.frame960.chk
%nprocshared=20
%mem=10GB
%nosave
#b3lyp/svp scf=(tight,noincore,xqc) Test 
#IOP(5/87=12) Density=Current Pop=(MK,readradii) iop(6/33=2) iop(6/42=6)

apoCaM-CA-Ng.loop3.water2.frame960 

   0  1 
C         69.20551      117.10020       29.85395
C         69.79413      118.48462       29.89067
O         69.08371      119.42313       30.22145
H         68.35860      117.05951       29.13949
H         69.96144      116.34378       29.55187
H         68.84003      116.82839       30.86791
N         71.11314      118.67618       29.61096
C         71.78170      119.96474       29.75768
C         71.35406      120.94743       28.66912
O         71.52127      120.63638       27.49726
C         73.30921      119.75333       29.70176
C         74.07788      120.92610       30.23425
O         75.29264      120.94255       30.13692
O         73.45478      121.92898       30.87957
H         71.68165      117.84720       29.37682
H         71.52973      120.35070       30.76771
H         73.60500      119.53271       28.65204
H         73.60666      118.88440       30.32195
N         70.78135      122.14604       28.98050
C         70.28106      123.06668       27.95679
C         71.39363      123.80261       27.20430
O         71.14928      124.20364       26.07491
C         69.26298      124.07532       28.53998
C         68.08391      123.35490       29.22471
C         67.02001      124.33291       29.73298
C         65.89977      123.57144       30.45946
N         64.84652      124.48006       30.90882
H         70.62704      122.36537       29.97415
H         69.70548      122.46361       27.21730
H         68.86398      124.69869       27.70849
H         69.76024      124.74895       29.26887
H         68.45425      122.76550       30.08843
H         67.60868      122.65679       28.50093
H         66.59474      124.88947       28.86931
H         67.48131      125.05922       30.43750
H         66.32676      123.04026       31.34018
H         65.45682      122.81291       29.77616
H         65.24027      125.19779       31.55939
H         64.40606      124.95051       30.08505
H         64.11436      123.92965       31.41362
N         72.60489      124.07823       27.77897
C         73.69159      124.80002       27.10078
C         74.98327      123.97512       27.03607
O         75.96800      124.48463       26.51825
C         73.90095      126.19862       27.74223
C         74.14798      126.14651       29.21861
O         73.32183      126.60971       29.98834
O         75.20981      125.49441       29.71146
H         72.76439      123.78253       28.75212
H         73.41988      125.01044       26.04231
H         72.97174      126.78610       27.56915
H         74.73321      126.73800       27.24031
N         75.03758      122.67343       27.45248
C         76.19521      121.81195       27.24288
C         77.40060      122.06166       28.13891
O         78.39238      121.37982       27.92271
H         74.18662      122.22160       27.81043
H         76.50293      121.89149       26.17589
H         75.88868      120.75709       27.41081
N         77.41889      122.98878       29.14440
C         78.61620      123.27756       29.94066
C         78.39529      123.19751       31.44730
O         77.49015      123.83661       31.96536
C         79.11060      124.70387       29.65015
C         79.50746      124.89505       28.21189
N         78.92822      125.85966       27.46231
O         80.37649      124.18715       27.72430
H         76.57966      123.55173       29.31377
H         79.45092      122.59411       29.66856
H         80.01203      124.90172       30.27279
H         78.32637      125.43754       29.93933
H         78.20459      126.47510       27.86149
H         79.21357      126.00030       26.48258
N         79.32974      122.57219       32.22160
C         79.42451      122.71705       33.66742
C         78.28150      122.10092       34.42014
O         78.03974      120.91340       34.25414
H         80.10280      122.07042       31.75884
H         79.52899      123.79492       33.91972
H         80.35136      122.20837       34.01053
N         77.57015      122.83728       35.32792
C         76.50131      122.25125       36.13157
C         75.36248      121.78504       35.25240
O         75.39243      122.03334       34.05390
C         75.98886      123.24180       37.20586
C         77.06287      123.60880       38.20638
C         77.45357      124.94742       38.38208
C         77.67306      122.61175       38.98958
C         78.43976      125.27908       39.31844
C         78.66105      122.94484       39.91941
C         79.04831      124.27687       40.08854
O         80.00088      124.58023       40.99345
H         77.82492      123.82609       35.47705
H         76.90914      121.35312       36.64337
H         75.15659      122.78162       37.77966
H         75.58637      124.14913       36.70277
H         76.99412      125.73590       37.79941
H         77.38581      121.57372       38.88411
H         78.72938      126.31459       39.44562
H         79.12400      122.16501       40.51130
H         80.29739      125.48877       41.14536
N         74.35088      121.03848       35.78655
C         73.26638      120.43376       35.01725
C         72.37311      121.52684       34.43982
O         72.86864      122.38372       33.72620
C         73.83176      119.44729       33.94308
C         72.72478      118.64109       33.21795
C         74.87964      118.49114       34.55400
C         71.90818      117.69338       34.10180
H         74.37835      120.82815       36.79651
H         72.66518      119.83246       35.72995
H         74.35835      120.02975       33.15807
H         73.20455      118.02366       32.42858
H         72.02617      119.34425       32.72608
H         74.45119      117.89398       35.38441
H         75.27783      117.80545       33.77631
H         75.74572      119.05526       34.95860
H         71.17298      117.15367       33.46899
H         72.55673      116.93349       34.58361
H         71.34549      118.24745       34.87818
N         71.03464      121.56121       34.71077
C         70.17791      122.66136       34.26326
C         69.30623      123.24750       35.37438
O         68.64048      124.24043       35.10404
C         69.31558      122.20247       33.08129
O         68.45008      121.17436       33.47339
H         70.61372      120.76568       35.20991
H         70.80865      123.49586       33.89456
H         69.98627      121.83830       32.27210
H         68.72972      123.07064       32.70025
H         67.86326      121.00182       32.69176
N         69.20955      122.69434       36.62084
C         68.30790      123.22553       37.64399
C         68.78780      124.57844       38.16339
O         69.94105      124.91198       37.92829
C         68.22034      122.23048       38.80960
H         69.73579      121.83772       36.84001
H         67.30069      123.31825       37.18424
H         67.52359      122.57160       39.59350
H         67.85802      121.24850       38.43715
H         69.22032      122.08857       39.27296
N         67.99791      125.43682       38.88188
C         66.55196      125.30895       39.04712
C         66.06715      126.06273       40.28631
O         66.43672      127.21922       40.43907
C         65.85852      125.91582       37.82354
H         68.42503      126.33865       39.14807
H         66.25152      124.25120       39.07829
H         66.11326      126.99199       37.71734
H         66.16702      125.38739       36.89819
H         64.75588      125.81642       37.92691
N         65.17219      125.54574       41.18338
C         64.55265      124.23015       41.06224
C         65.49420      123.12424       41.53012
O         65.19350      121.96134       41.29935
C         63.20963      124.21974       41.83359
C         62.35799      122.96307       41.58341
C         61.01473      123.07827       42.24558
O         60.24680      123.97350       41.92938
O         60.64148      122.18052       43.17721
H         64.84290      126.17268       41.93581
H         64.28016      124.08164       39.99502
H         62.62188      125.09512       41.47554
H         63.39122      124.34802       42.92381
H         62.87064      122.06526       41.98234
H         62.19848      122.82999       40.49129
N         66.64677      123.39904       42.20736
C         67.53022      122.35220       42.67472
H         68.38769      122.79693       43.22297
H         66.98366      121.67291       43.36325
H         67.92191      121.76849       41.81664
H         66.90657      124.37090       42.42807
Ca        74.50534      123.88816       31.08466
O         71.50435      124.39684       31.57847
H         70.74173      124.96335       31.85531
H         71.68327      124.66453       30.64473
O         73.38543      125.28767       33.84570
H         72.47687      125.47984       34.18948
H         73.94158      125.18174       34.65786

Ca 1.0



