%chk=apoCaM-CA-Ng.loop2.water3.frame719.chk
%nprocshared=20
%mem=10GB
%nosave
#b3lyp/svp scf=(tight,noincore,xqc) Test 
#IOP(5/87=12) Density=Current Pop=(MK,readradii) iop(6/33=2) iop(6/42=6)

apoCaM-CA-Ng.loop2.water3.frame719 

   -2  1 
C         68.70434      113.76566       -5.61794
C         69.91063      114.63540       -5.80049
O         69.85454      115.79731       -5.42316
H         67.85055      114.20516       -6.17642
H         68.88359      112.73836       -5.99719
H         68.44485      113.71172       -4.54038
N         71.03554      114.15341       -6.40284
C         72.20039      114.99269       -6.64291
C         72.84213      115.38179       -5.32403
O         73.44003      114.53138       -4.67784
C         73.21137      114.25910       -7.55706
C         74.40793      115.08493       -7.95740
O         75.25540      114.59364       -8.68557
O         74.55729      116.35684       -7.53804
H         71.03812      113.17923       -6.74303
H         71.85224      115.89810       -7.18923
H         72.68664      113.95690       -8.48937
H         73.56814      113.33591       -7.04879
N         72.73546      116.65896       -4.85936
C         73.40339      117.13452       -3.65406
C         72.38514      117.41507       -2.54695
O         71.19589      117.36115       -2.82971
C         74.20399      118.38180       -4.05388
H         72.15493      117.33048       -5.38567
H         74.09864      116.35630       -3.29551
H         74.89612      118.12361       -4.88202
H         73.51117      119.17682       -4.40511
H         74.82376      118.80446       -3.25377
N         72.72317      117.68964       -1.24705
C         74.08301      117.72210       -0.70489
C         74.78100      116.37221       -0.80270
O         74.12423      115.35989       -1.01185
C         74.07338      118.18555        0.76942
C         73.33751      117.24983        1.68655
O         72.76528      116.12245        1.22185
O         73.28957      117.49487        2.88141
H         71.94283      117.88193       -0.59772
H         74.66588      118.47919       -1.24423
H         73.60468      119.19063        0.83848
H         75.11967      118.26948        1.13670
N         76.12906      116.29052       -0.62429
C         76.85274      115.03115       -0.57992
C         76.72842      114.18804       -1.83525
O         76.10244      114.61612       -2.79380
H         76.66491      117.15769       -0.46760
H         76.45117      114.43841        0.26471
H         77.92796      115.24260       -0.39219
N         77.27712      112.93987       -1.91307
C         78.09118      112.32714       -0.86539
C         77.36706      111.12042       -0.26554
O         76.29514      110.75873       -0.73036
C         79.47925      112.02554       -1.48817
C         80.55295      111.61236       -0.51338
N         81.25640      110.47028       -0.69681
O         80.81866      112.33930        0.43264
H         77.12084      112.39383       -2.77599
H         78.25000      113.03320       -0.02902
H         79.84498      112.96775       -1.95308
H         79.37090      111.27334       -2.30023
H         81.07269      109.85704       -1.50403
H         82.00741      110.20910       -0.04032
N         77.89409      110.46811        0.80539
C         77.28831      109.31801        1.45701
C         76.08857      109.63922        2.33247
O         75.09371      108.93339        2.25247
H         78.80315      110.77607        1.17456
H         78.04378      108.91015        2.16258
H         77.06933      108.51473        0.71935
N         76.16658      110.62542        3.27381
C         75.21943      110.79263        4.38374
C         73.76092      110.86513        3.95464
O         73.39878      111.69310        3.13118
C         75.58874      112.02407        5.24976
C         74.69174      112.13628        6.49365
O         76.92485      111.91190        5.66843
H         77.00471      111.22640        3.25861
H         75.33763      109.90141        5.03900
H         75.46445      112.93726        4.62709
H         77.22939      112.82643        5.90718
H         74.79488      111.22784        7.12534
H         74.98611      113.02220        7.09417
H         73.62488      112.25765        6.21287
N         72.85926      110.03766        4.56299
C         71.42740      110.03149        4.29851
C         70.73590      111.00275        5.24746
O         70.80880      110.81903        6.45429
C         70.86775      108.58296        4.48162
C         69.33097      108.52389        4.26351
C         71.60003      107.60915        3.53573
C         68.71733      107.16256        4.60141
H         73.19936      109.41262        5.31019
H         71.24726      110.33847        3.24624
H         71.07429      108.26977        5.53020
H         69.08097      108.78615        3.21489
H         68.83554      109.25605        4.93480
H         71.28389      106.56201        3.70969
H         71.40647      107.87725        2.47534
H         72.69542      107.63168        3.71202
H         69.09039      106.36439        3.92985
H         68.94183      106.89259        5.65573
H         67.61481      107.21446        4.47906
N         70.01969      112.04944        4.75012
C         69.27457      113.01001        5.55529
C         67.77626      112.94140        5.28510
O         67.05556      113.72859        5.88418
C         69.85160      114.40559        5.28087
C         71.25244      114.44807        5.82891
O         72.30973      114.53309        5.01132
O         71.43857      114.36027        7.03151
H         70.00390      112.19654        3.73543
H         69.38023      112.79754        6.64168
H         69.26108      115.20833        5.77204
H         69.82828      114.59575        4.18464
N         67.22128      111.98135        4.48334
C         65.78383      111.77102        4.35805
C         65.35879      111.81934        2.88658
O         64.82959      110.82864        2.39662
C         65.47714      110.38713        4.99235
C         64.02075      109.98248        5.12677
C         62.94100      110.87254        4.94578
C         63.74430      108.64458        5.46118
C         61.62423      110.42598        5.10098
C         62.42671      108.20092        5.59964
C         61.36716      109.09171        5.42305
H         67.82585      111.29881        4.01165
H         65.23010      112.54784        4.92517
H         65.92094      110.33588        6.01099
H         65.99911      109.62420        4.37089
H         63.09724      111.91231        4.69980
H         64.55403      107.93848        5.60227
H         60.80077      111.11638        4.97169
H         62.22814      107.16559        5.84542
H         60.34716      108.74809        5.53705
N         65.53210      112.92647        2.09861
C         65.07595      113.01498        0.71490
C         65.60067      111.93881       -0.22625
O         65.06567      111.81681       -1.31894
C         65.59075      114.38169        0.25448
C         65.52334      115.18445        1.53381
C         66.06393      114.19033        2.56074
H         63.96387      112.96731        0.74900
H         66.67351      114.29677       -0.00157
H         65.05240      114.80985       -0.61768
H         66.05095      116.16122        1.51454
H         64.44483      115.36300        1.75052
H         67.17442      114.13235        2.54932
H         65.68943      114.48754        3.56283
N         66.66454      111.15164        0.10467
C         67.14927      110.08164       -0.75840
C         66.10439      108.99016       -0.77791
O         65.59762      108.65857       -1.84058
C         68.52008      109.47795       -0.33062
C         69.69605      110.48040       -0.37103
C         69.81938      111.32643        0.86075
O         70.64740      112.21927        0.91140
O         69.11093      111.03080        1.95809
H         67.12376      111.32698        0.99450
H         67.30534      110.48814       -1.78367
H         68.75017      108.70572       -1.09790
H         68.48449      108.95324        0.64903
H         69.60771      111.11292       -1.28018
H         70.65417      109.92064       -0.43720
N         65.70895      108.41065        0.38983
C         64.67861      107.39963        0.44448
H         63.73167      107.80432        0.02770
H         64.99199      106.50576       -0.13356
H         64.49966      107.10238        1.50022
H         66.13698      108.71499        1.27808
Ca        72.03047      114.79719        2.82458
O         70.89340      114.75477       -0.60676
H         69.91601      114.81487       -0.75223
H         71.24071      114.30634       -1.41828
O         73.25419      111.89081        0.06855
H         73.36804      110.95883        0.38397
H         74.12497      112.13352       -0.33188
O         75.15923      114.45492        2.49910
H         76.12074      114.24729        2.61285
H         74.93387      115.01454        3.28371

Ca 1.0



