%chk=apoCaM-CA-Ng.loop1.water3.frame698.chk
%nprocshared=20
%mem=10GB
%nosave
#b3lyp/svp scf=(tight,noincore,xqc) Test 
#IOP(5/87=12) Density=Current Pop=(MK,readradii) iop(6/33=2) iop(6/42=6)

apoCaM-CA-Ng.loop1.water3.frame698 

   0  1 
C         58.61663       95.76577       -2.18083
C         58.72443       97.23965       -1.92372
O         58.05860       98.01332       -2.59650
H         57.89003       95.55911       -2.99548
H         59.60879       95.36333       -2.47291
H         58.27164       95.25192       -1.25861
N         59.54275       97.69510       -0.93481
C         59.69136       99.10959       -0.59720
C         61.14246       99.56327       -0.71983
O         62.00863       98.75736       -1.02900
C         59.05498       99.39566        0.78719
C         59.58356       98.62050        1.96621
O         60.48072       97.80619        1.84864
O         59.03118       98.81701        3.17814
H         60.06690       96.99647       -0.38796
H         59.12411       99.73337       -1.32166
H         57.97138       99.16151        0.70832
H         59.14350      100.47688        1.01919
N         61.45708      100.88004       -0.53610
C         62.78707      101.44925       -0.73419
C         63.27813      102.02864        0.58166
O         62.55592      102.80269        1.19405
C         62.70179      102.55245       -1.80708
C         64.09118      103.05765       -2.22542
C         63.98391      104.28507       -3.13708
C         65.36837      104.72956       -3.62658
N         65.29336      106.01404       -4.32115
H         60.70319      101.53185       -0.27335
H         63.49681      100.67312       -1.09790
H         62.08401      103.38944       -1.41291
H         62.20127      102.15171       -2.71635
H         64.63167      102.23273       -2.74171
H         64.67125      103.35685       -1.32778
H         63.51875      105.10542       -2.54776
H         63.34135      104.06878       -4.01861
H         65.78288      103.95306       -4.30881
H         66.05419      104.83810       -2.76171
H         64.98900      106.75676       -3.64958
H         66.24181      106.26310       -4.68424
H         64.62082      105.96322       -5.11981
N         64.50808      101.70185        1.07276
C         64.97106      102.12915        2.40058
C         66.45505      101.81999        2.61012
O         67.00017      101.02025        1.86383
C         64.11590      101.38375        3.46282
C         64.12538       99.89693        3.18723
O         65.15899       99.25328        3.27375
O         63.01008       99.29702        2.72956
H         65.11235      101.11172        0.48348
H         64.85290      103.22909        2.47593
H         63.06648      101.73500        3.38402
H         64.44461      101.58208        4.50125
N         67.20920      102.36765        3.61083
C         66.81762      103.40365        4.55831
C         66.75896      104.79086        3.94624
O         66.72929      104.93132        2.73457
H         68.17894      102.02414        3.70387
H         67.63871      103.46211        5.30684
H         65.89860      103.15340        5.12328
N         66.81674      105.87887        4.76775
C         66.85324      107.26868        4.31083
C         68.03550      107.52816        3.38566
O         69.16875      107.26580        3.76584
C         66.95803      108.21190        5.53482
C         67.00379      109.66656        5.14659
O         68.07335      110.41742        5.47500
O         66.07557      110.17336        4.53742
H         66.86665      105.70223        5.78397
H         65.90315      107.50071        3.78065
H         67.87939      107.96748        6.10958
H         66.08392      108.05364        6.20230
N         67.83465      108.12820        2.17624
C         68.91945      108.54207        1.29979
C         69.63690      107.41073        0.59813
O         70.57338      107.70665       -0.13058
H         66.87615      108.39462        1.90454
H         69.64346      109.15170        1.88272
H         68.50290      109.19103        0.49854
N         69.24423      106.11047        0.71608
C         69.87863      105.01736       -0.01035
C         70.44236      103.97657        0.93661
O         70.28250      104.07581        2.14592
C         68.87382      104.38075       -1.01189
C         67.64365      103.76063       -0.34138
O         68.44870      105.34914       -1.93397
H         68.44542      105.88127        1.31466
H         70.73819      105.39394       -0.60661
H         69.36688      103.54774       -1.56339
H         69.14245      105.39663       -2.64302
H         67.94899      102.99849        0.40254
H         67.02176      104.53250        0.15429
H         67.01994      103.25694       -1.10711
N         71.11777      102.92132        0.41034
C         71.67724      101.83105        1.19315
C         72.80491      102.36160        2.06280
O         72.81159      102.08693        3.25476
C         72.13643      100.66878        0.25465
C         71.00551      100.18890       -0.71313
C         72.66300       99.47507        1.07213
C         69.68380       99.80404       -0.03766
H         71.23860      102.89871       -0.61054
H         70.88654      101.40482        1.84992
H         72.97522      101.02519       -0.38395
H         71.37520       99.32290       -1.30343
H         70.76815      100.97982       -1.45287
H         71.87953       99.07055        1.74594
H         72.99802       98.66427        0.38980
H         73.53538       99.77439        1.68855
H         68.95736       99.47291       -0.80975
H         69.82089       98.97988        0.68969
H         69.23791      100.68119        0.47380
N         73.74771      103.19876        1.53782
C         74.81734      103.80282        2.32466
C         76.12325      103.71128        1.55657
O         76.21386      104.24667        0.45966
C         74.45483      105.26207        2.67197
C         75.53192      105.92073        3.54338
O         74.26078      106.01184        1.50019
H         73.65337      103.48450        0.55100
H         74.91907      103.26911        3.29643
H         73.50505      105.22337        3.25823
H         73.62221      106.73796        1.72574
H         76.49675      105.98907        2.99696
H         75.21410      106.94598        3.82523
H         75.68794      105.33227        4.47311
N         77.17115      103.01354        2.06897
C         78.41719      102.80943        1.33990
C         79.12039      101.59862        1.92079
O         79.32547      100.63610        1.19439
C         79.30286      104.09210        1.30996
C         80.51149      103.90356        0.37718
O         79.73732      104.42834        2.60317
H         77.03302      102.53438        2.97226
H         78.15839      102.55291        0.28705
H         78.69393      104.93169        0.90637
H         80.22527      105.29142        2.53702
H         81.11618      104.83525        0.33614
H         81.16401      103.07680        0.72825
H         80.16394      103.67880       -0.65399
N         79.47449      101.56210        3.23683
C         80.08367      100.39986        3.87170
C         79.25108       99.93225        5.05626
O         78.30493      100.60550        5.44318
C         81.55397      100.70972        4.22091
C         81.74904      101.93895        5.12665
C         83.23135      102.32163        5.20910
C         83.42034      103.62737        5.99290
N         84.81956      104.05147        5.97061
H         79.28237      102.38694        3.82223
H         80.10267       99.54943        3.15545
H         82.06285      100.91422        3.25259
H         82.04201       99.82116        4.67655
H         81.32915      101.74536        6.13772
H         81.22910      102.81196        4.68501
H         83.61018      102.48387        4.17528
H         83.81653      101.50121        5.67826
H         83.08535      103.48661        7.04405
H         82.79968      104.42845        5.53099
H         85.12820      104.21203        4.98349
H         84.91353      104.94870        6.49902
H         85.42513      103.32500        6.41588
N         79.51946       98.72750        5.63507
C         78.72359       98.14548        6.71473
C         77.23745       98.07091        6.35329
O         76.46091       98.65866        7.09365
C         79.31533       96.76963        7.13353
C         78.46192       95.96002        8.12555
C         78.15078       96.70405        9.39024
O         76.98955       96.90573        9.70914
O         79.14532       97.13507       10.18797
H         80.31054       98.18163        5.25975
H         78.80629       98.80838        7.60654
H         80.32394       96.94894        7.56756
H         79.46088       96.11525        6.25221
H         79.01060       95.02846        8.38404
H         77.51412       95.66036        7.62633
N         76.71526       97.40478        5.28216
C         77.45870       96.69345        4.26610
H         78.54912       96.74905        4.39638
H         77.14886       95.62769        4.26713
H         77.22202       97.13412        3.27546
H         75.68944       97.41484        5.16678
Ca        63.17917       97.24668        1.78712
O         62.60262       96.20549        4.41227
H         61.73274       96.66762        4.51379
H         63.14542       96.52135        5.17729
O         65.50912       95.63150        2.36587
H         65.60475       95.17323        3.23799
H         66.17660       96.36244        2.39148
O         65.12620       98.07487       -0.30785
H         65.86498       98.72764       -0.39577
H         64.90494       97.81883       -1.23834

Ca 1.0



