%chk=apoCaM-CA-Ng.loop3.water3.frame929.chk
%nprocshared=20
%mem=10GB
%nosave
#b3lyp/svp scf=(tight,noincore,xqc) Test 
#IOP(5/87=12) Density=Current Pop=(MK,readradii) iop(6/33=2) iop(6/42=6)

apoCaM-CA-Ng.loop3.water3.frame929 

   0  1 
C        -25.36330       -3.27967       -6.83299
C        -26.82238       -3.43732       -6.52760
O        -27.52687       -4.04757       -7.31982
H        -24.89473       -4.28296       -6.91608
H        -25.24148       -2.73798       -7.79366
H        -24.84102       -2.71201       -6.03457
N        -27.34968       -2.93028       -5.37714
C        -28.75460       -3.10672       -5.01987
C        -29.64378       -2.34274       -6.01096
O        -29.12932       -1.47537       -6.70458
C        -28.94636       -2.67857       -3.53834
C        -30.17618       -3.16672       -2.82108
O        -30.30564       -2.90700       -1.50683
O        -31.01773       -3.85075       -3.37189
H        -26.71711       -2.45051       -4.71766
H        -28.94489       -4.18847       -5.07924
H        -28.86792       -1.57351       -3.45470
H        -28.11112       -3.12253       -2.95530
N        -30.97323       -2.62135       -6.15438
C        -31.86195       -1.89008       -7.06589
C        -32.92117       -1.08978       -6.31723
O        -33.61178       -0.29923       -6.94508
C        -32.50483       -2.84820       -8.09612
C        -33.38769       -3.94941       -7.47055
C        -33.96458       -4.87334       -8.55174
C        -34.77773       -6.01933       -7.93232
N        -35.30763       -6.90413       -8.96951
H        -31.37170       -3.38371       -5.59898
H        -31.27259       -1.13810       -7.63318
H        -31.68846       -3.32828       -8.67735
H        -33.12249       -2.25296       -8.80452
H        -34.22087       -3.49076       -6.89414
H        -32.78251       -4.56898       -6.78033
H        -33.13090       -5.31073       -9.14295
H        -34.61422       -4.28290       -9.23405
H        -35.62055       -5.60233       -7.33754
H        -34.12565       -6.61104       -7.25182
H        -35.86596       -7.66418       -8.51879
H        -35.93058       -6.36946       -9.61698
H        -34.52216       -7.33520       -9.50994
N        -33.10754       -1.24725       -4.97969
C        -34.04738       -0.48442       -4.17438
C        -33.32724        0.12291       -2.96903
O        -33.44862        1.32226       -2.76311
C        -35.29509       -1.32356       -3.79989
C        -35.09231       -2.65158       -3.13033
O        -36.06289       -3.24985       -2.69477
O        -33.87717       -3.19603       -2.98685
H        -32.55815       -1.95938       -4.49674
H        -34.47472        0.36161       -4.75913
H        -35.88380       -1.52544       -4.72058
H        -35.92210       -0.69149       -3.13241
N        -32.52655       -0.63168       -2.15788
C        -31.79802       -0.12651       -1.00950
C        -32.12342       -0.88384        0.26727
O        -31.53656       -0.53764        1.28261
H        -32.36988       -1.61538       -2.37358
H        -32.00318        0.95238       -0.84367
H        -30.71015       -0.23575       -1.21151
N        -33.04600       -1.89888        0.31693
C        -33.44177       -2.55925        1.55783
C        -33.18037       -4.09516        1.49285
O        -34.19707       -4.76920        0.80602
C        -34.91122       -2.16257        1.82831
C        -35.49913       -2.71947        3.09879
N        -35.84182       -1.89701        4.11655
O        -35.69836       -3.91995        3.20243
H        -33.54750       -2.17554       -0.53621
H        -32.82876       -2.16426        2.39726
H        -35.55707       -2.46527        0.97492
H        -34.93400       -1.05065        1.87437
H        -35.68796       -0.88022        4.05217
H        -36.25801       -2.28057        4.97744
N        -33.05478       -4.65052        2.84659
C        -33.02933       -6.12024        2.89368
C        -31.83682       -6.71317        2.17718
O        -30.71227       -6.37101        2.51455
H        -32.19048       -4.27087        3.29744
H        -33.98374       -6.53462        2.50017
H        -32.97777       -6.42637        3.96002
N        -32.01246       -7.66676        1.21790
C        -30.89421       -8.38623        0.61282
C        -30.28163       -7.60687       -0.54681
O        -30.71789       -6.50384       -0.83788
C        -31.34798       -9.78502        0.12079
C        -32.04090      -10.62670        1.16567
C        -33.29533      -11.18908        0.87675
C        -31.44100      -10.89351        2.40969
C        -33.93487      -12.01008        1.80712
C        -32.09099      -11.70475        3.34614
C        -33.33480      -12.27097        3.04624
O        -33.93974      -13.06776        3.94986
H        -32.97326       -7.97865        1.00687
H        -30.11396       -8.56198        1.38515
H        -30.46225      -10.36847       -0.19926
H        -32.00545       -9.67012       -0.76538
H        -33.77183      -11.00978       -0.07914
H        -30.47346      -10.47803        2.65924
H        -34.89365      -12.44743        1.55938
H        -31.62285      -11.90157        4.30252
H        -34.79122      -13.49220        3.77094
N        -29.27315       -8.17756       -1.27488
C        -28.62134       -7.63438       -2.46366
C        -29.63149       -7.38552       -3.57953
O        -30.42437       -6.46411       -3.44985
C        -27.79587       -6.34585       -2.15408
C        -26.89213       -5.92408       -3.34832
C        -26.96599       -6.47687       -0.86448
C        -25.74941       -6.89368       -3.68102
H        -28.93190       -9.10290       -0.98220
H        -27.91309       -8.42307       -2.79376
H        -28.51106       -5.51455       -1.96912
H        -26.43293       -4.93888       -3.11624
H        -27.51276       -5.79865       -4.25802
H        -26.25438       -7.32475       -0.91960
H        -26.40556       -5.53568       -0.67673
H        -27.63018       -6.64089        0.00976
H        -25.05484       -7.00332       -2.82296
H        -26.12801       -7.89182       -3.97666
H        -25.16366       -6.49039       -4.53337
N        -29.68273       -8.15560       -4.70583
C        -30.60130       -7.83876       -5.79942
C        -30.73520       -8.95731       -6.80811
O        -29.73649       -9.41764       -7.35068
C        -30.13867       -6.57413       -6.53766
O        -30.99622       -6.29847       -7.61109
H        -29.06575       -8.98010       -4.78037
H        -31.61275       -7.64242       -5.37794
H        -29.10119       -6.72625       -6.91514
H        -30.17352       -5.72615       -5.83805
H        -30.59009       -5.53656       -8.10005
N        -31.98354       -9.34643       -7.19552
C        -32.23298      -10.28330       -8.28397
C        -33.70562      -10.30437       -8.68899
O        -34.54069       -9.87738       -7.90067
C        -31.82404      -11.69686       -7.85731
H        -32.78438       -8.86836       -6.75403
H        -31.64494       -9.91902       -9.15217
H        -30.74418      -11.74936       -7.61245
H        -32.40183      -12.00149       -6.95806
H        -32.04997      -12.42380       -8.65755
N        -34.15377      -10.80000       -9.88011
C        -33.33671      -11.29076      -10.98925
C        -33.62744      -12.76577      -11.19683
O        -34.79692      -13.12271      -11.20176
C        -33.68248      -10.49686      -12.25200
H        -35.17601      -10.81037      -10.02694
H        -32.26660      -11.13417      -10.79462
H        -33.46747       -9.41843      -12.09165
H        -33.06945      -10.85312      -13.10775
H        -34.75739      -10.60931      -12.51124
N        -32.65864      -13.71969      -11.33326
C        -31.23522      -13.48325      -11.55587
C        -30.45718      -13.70906      -10.27996
O        -29.73187      -12.81033       -9.87647
C        -30.75978      -14.39360      -12.70666
C        -29.27707      -14.19748      -13.05524
C        -28.89071      -15.05190      -14.22856
O        -27.94240      -15.99823      -14.09325
O        -29.42805      -14.88747      -15.31271
H        -32.97395      -14.70288      -11.35973
H        -31.04876      -12.44509      -11.90142
H        -31.37387      -14.15323      -13.60337
H        -30.93198      -15.46071      -12.44302
H        -28.65035      -14.47478      -12.18014
H        -29.08120      -13.13352      -13.30901
N        -30.58061      -14.86674       -9.57343
C        -29.90032      -15.10226       -8.31489
H        -29.25178      -14.25176       -8.01455
H        -30.65545      -15.25540       -7.51512
H        -29.27091      -16.01129       -8.39856
H        -31.20697      -15.60700       -9.92136
Ca       -33.71459       -4.69808       -1.37897
O        -33.75481       -5.94429       -4.49860
H        -34.20582       -6.80493       -4.68876
H        -34.42318       -5.25708       -4.74460
O        -33.19670       -7.91221       -2.30948
H        -33.90864       -8.49231       -1.93949
H        -32.76787       -8.46248       -3.01239
O        -36.06794       -6.59582       -1.41432
H        -36.28694       -6.57113       -2.37962
H        -36.31397       -5.69632       -1.08127

Ca 1.0



