%chk=apoCaM-CA-Ng.loop3.water6.frame376.chk
%nprocshared=20
%mem=10GB
%nosave
#b3lyp/svp scf=(tight,noincore,xqc) Test 
#IOP(5/87=12) Density=Current Pop=(MK,readradii) iop(6/33=2) iop(6/42=6)

apoCaM-CA-Ng.loop3.water6.frame376 

   0  1 
C         58.79461      114.77170       12.76982
C         60.25216      114.52106       13.01862
O         60.70455      114.67099       14.14216
H         58.27958      115.08214       13.70353
H         58.68213      115.57849       12.01428
H         58.31671      113.84639       12.38507
N         61.05479      114.14592       11.98596
C         62.49003      113.90140       12.08532
C         63.21720      115.16848       12.53466
O         64.04974      115.12229       13.42997
C         62.76173      112.65392       12.96596
C         64.18388      112.15438       12.94010
O         64.50989      111.06744       13.66504
O         65.04003      112.70014       12.26172
H         60.62560      114.04590       11.05242
H         62.84005      113.66861       11.05439
H         62.12352      111.82128       12.59752
H         62.47765      112.86482       14.01864
N         62.90610      116.35789       11.94240
C         63.55749      117.64079       12.22962
C         63.57113      118.06678       13.69441
O         64.27936      119.01492       14.00710
C         62.87558      118.76856       11.41556
C         61.38603      118.94407       11.81834
C         60.67353      120.09734       11.10046
C         60.67482      120.00769        9.56488
N         60.06275      118.77242        9.07223
H         62.17960      116.33413       11.21175
H         64.62010      117.53639       11.91780
H         62.94944      118.51723       10.33696
H         63.41614      119.72579       11.58250
H         61.31266      119.15339       12.90708
H         60.81824      118.00919       11.63622
H         61.15216      121.05539       11.39645
H         59.62007      120.12038       11.45862
H         61.71290      120.08989        9.17841
H         60.10431      120.87849        9.17327
H         60.63428      117.94252        9.34922
H         59.08896      118.67586        9.44047
H         60.02963      118.80712        8.02792
N         62.79694      117.46672       14.63655
C         62.79921      117.87179       16.03758
C         64.18020      117.62324       16.62202
O         64.73780      116.56873       16.36245
C         61.71651      117.07370       16.79271
C         61.39474      117.63693       18.15420
O         62.32623      117.70619       19.11734
O         60.26586      118.03535       18.39326
H         62.16321      116.71186       14.34715
H         62.51913      118.94720       16.10397
H         62.02142      116.00990       16.86320
H         60.77537      117.12112       16.20024
N         64.80200      118.54664       17.40762
C         66.14016      118.35984       17.96387
C         66.28934      117.20455       18.95215
O         67.39168      117.02410       19.44904
H         64.31813      119.43559       17.60184
H         66.42951      119.28958       18.50137
H         66.85849      118.21450       17.12882
N         65.24928      116.39233       19.29706
C         65.32658      115.28959       20.24643
C         64.95617      113.96802       19.57005
O         64.76847      112.98589       20.27452
C         64.35508      115.56610       21.41909
C         64.70694      116.81933       22.18794
N         65.04559      116.75505       23.49790
O         64.67375      117.90491       21.62865
H         64.32909      116.54808       18.88398
H         66.34653      115.17853       20.67690
H         64.39314      114.70409       22.11745
H         63.31255      115.65333       21.04227
H         65.07764      115.85355       23.99607
H         65.27903      117.61295       24.01973
N         64.86507      113.84770       18.21051
C         64.46586      112.61356       17.55399
C         62.98853      112.31393       17.72201
O         62.59106      111.19644       17.42118
H         65.12799      114.63148       17.60834
H         65.08577      111.78349       17.95559
H         64.66205      112.68067       16.46129
N         62.10521      113.26933       18.13474
C         60.68055      113.03611       18.33986
C         60.32051      113.45693       19.74304
O         60.68686      114.55360       20.14670
C         59.83231      113.83376       17.33178
C         58.35408      113.58566       17.55710
C         57.81597      112.29342       17.41367
C         57.50627      114.63895       17.93970
C         56.46136      112.05825       17.66265
C         56.15062      114.40071       18.18736
C         55.62501      113.10740       18.05389
O         54.32313      112.86052       18.30278
H         62.44993      114.22556       18.30759
H         60.43461      111.96236       18.19339
H         60.09493      113.52504       16.29997
H         60.05528      114.91400       17.44198
H         58.44468      111.46344       17.11820
H         57.89515      115.64233       18.06022
H         56.06328      111.05661       17.55829
H         55.51166      115.22009       18.49115
H         53.71285      113.55509       18.58866
N         59.56471      112.65386       20.53556
C         59.25559      112.99563       21.91681
C         60.55811      112.95970       22.68937
O         60.91518      113.95583       23.30139
C         58.16926      112.04823       22.50086
C         56.83518      112.12142       21.69492
C         57.90535      112.34804       23.98875
C         56.15239      113.49812       21.66858
H         59.21627      111.76472       20.14409
H         58.84165      114.02548       21.96854
H         58.53917      111.00091       22.43554
H         56.11780      111.39215       22.12898
H         57.00992      111.81309       20.64370
H         58.82322      112.20074       24.58998
H         57.57098      113.39475       24.13998
H         57.13101      111.65796       24.38594
H         55.89094      113.84198       22.68942
H         56.78849      114.26024       21.17452
H         55.20905      113.42936       21.08776
N         61.37170      111.86722       22.60671
C         62.71105      111.86412       23.17779
C         62.71059      111.81547       24.69225
O         63.73106      112.16488       25.26910
C         63.54936      110.70660       22.61388
O         62.98612      109.47559       22.97581
H         61.07161      111.07087       22.02396
H         63.20833      112.80348       22.85155
H         64.58813      110.77615       23.00824
H         63.57582      110.79603       21.50388
H         63.53829      108.78096       22.53155
N         61.63644      111.35250       25.40539
C         61.62232      111.22781       26.86241
C         61.74486      112.57601       27.56860
O         61.99994      112.59159       28.76444
C         62.72009      110.24632       27.31733
H         60.80010      111.02938       24.89891
H         60.65701      110.77480       27.17933
H         62.64681      110.06552       28.41027
H         62.59239      109.27191       26.79883
H         63.74052      110.62483       27.10900
N         61.54441      113.74846       26.89894
C         61.76316      115.06703       27.47743
C         60.47235      115.85891       27.54215
O         59.74163      115.89849       26.56268
C         62.78433      115.80734       26.61488
H         61.24236      113.72118       25.91524
H         62.19483      114.99706       28.49969
H         62.97648      116.81929       27.03127
H         63.74077      115.24309       26.59684
H         62.41595      115.90527       25.57274
N         60.16494      116.56397       28.67401
C         58.97536      117.39595       28.84935
C         57.69502      116.57915       28.96725
O         56.63042      117.18067       29.01892
C         58.86278      118.50457       27.77086
C         60.10918      119.40181       27.72745
C         59.90103      120.56410       26.79765
O         60.63314      120.72540       25.83535
O         58.91606      121.45129       27.03811
H         60.83388      116.54606       29.45859
H         59.06679      117.92778       29.82342
H         57.98680      119.14017       28.02969
H         58.67583      118.07892       26.76304
H         60.98734      118.80358       27.39854
H         60.31727      119.80807       28.74025
N         57.71481      115.22009       29.10080
C         56.51852      114.42111       29.27872
H         55.58913      115.02720       29.23708
H         56.47047      113.64962       28.48339
H         56.55937      113.91722       30.26782
H         58.61004      114.71283       29.12127
Ca        61.73472      119.40442       21.40833
O         60.75556      121.35905       19.17852
H         61.33259      122.15133       19.31885
H         59.98924      121.49951       19.78978
O         61.81702      117.98970       24.12710
H         61.74088      118.96108       24.29460
H         60.94190      117.62178       24.40806
O         63.42143      121.34321       22.96459
H         63.05442      121.12584       23.85788
H         62.79710      122.01845       22.59715
O         58.93235      119.56367       22.29431
H         58.59587      120.33528       22.81490
H         58.14535      118.97451       22.17844
O         60.27255      116.78940       21.79864
H         59.67459      116.36771       22.46497
H         59.69616      116.94007       21.00798
O         64.04350      120.59379       19.95206
H         64.93742      120.55646       20.37540
H         63.86360      121.55952       19.83119

Ca 1.0



