%chk=apoCaM-CA-Ng.loop1.water4.frame141.chk
%nprocshared=20
%mem=10GB
%nosave
#b3lyp/svp scf=(tight,noincore,xqc) Test 
#IOP(5/87=12) Density=Current Pop=(MK,readradii) iop(6/33=2) iop(6/42=6)

apoCaM-CA-Ng.loop1.water4.frame141 

   0  1 
C         34.48290       54.57702      -23.05208
C         32.98739       54.66968      -23.01686
O         32.32048       53.69953      -23.34770
H         34.88681       55.35301      -23.73599
H         34.88974       54.74093      -22.03248
H         34.80792       53.57809      -23.41331
N         32.39237       55.83331      -22.63456
C         30.94646       56.01915      -22.58807
C         30.46672       57.02844      -23.62282
O         29.26970       57.26188      -23.68047
C         30.48919       56.39153      -21.15502
C         30.98958       57.72188      -20.65318
O         32.30465       57.93314      -20.45717
O         30.19433       58.60418      -20.37136
H         33.00064       56.62752      -22.38825
H         30.43582       55.06997      -22.84319
H         30.81737       55.60498      -20.44236
H         29.37839       56.40220      -21.14138
N         31.31966       57.64516      -24.49257
C         30.88968       58.63517      -25.47322
C         31.21344       58.20653      -26.89326
O         32.31792       57.72433      -27.10502
C         31.59816       59.97058      -25.20885
C         31.03419       60.68034      -23.97607
C         31.54773       62.12115      -23.91601
C         30.83931       62.91986      -22.81878
N         31.27614       64.31502      -22.83679
H         32.32623       57.42874      -24.46232
H         29.81170       58.81913      -25.39673
H         31.39311       60.62622      -26.07468
H         32.70145       59.84449      -25.14467
H         31.27329       60.12106      -23.04573
H         29.93290       60.72569      -24.08742
H         31.32537       62.61924      -24.88561
H         32.64766       62.12504      -23.75667
H         31.05197       62.46864      -21.82523
H         29.73973       62.88761      -22.99347
H         31.05840       64.74625      -23.76549
H         30.76520       64.84418      -22.09442
H         32.30426       64.37211      -22.65564
N         30.39390       58.45537      -27.96886
C         29.05898       59.07140      -27.97451
C         28.98904       60.42889      -27.26015
O         28.28258       60.52620      -26.26615
C         27.97947       58.11663      -27.43151
C         27.83275       56.84926      -28.20357
O         27.92354       55.69998      -27.52704
O         27.53441       56.85186      -29.38764
H         30.76835       58.20428      -28.89772
H         28.75701       59.24666      -29.03118
H         26.99883       58.62768      -27.49221
H         28.16002       57.85944      -26.37130
N         29.60430       61.56150      -27.70277
C         30.38643       61.67656      -28.91493
C         31.72972       62.33302      -28.66313
O         32.05345       62.63251      -27.52319
H         29.44037       62.43155      -27.17229
H         29.81417       62.32069      -29.60639
H         30.53766       60.69299      -29.39806
N         32.59834       62.58960      -29.68309
C         32.30136       62.27700      -31.07773
C         31.21267       63.18245      -31.64903
O         30.83090       64.16407      -31.02523
C         33.58639       62.31348      -31.93482
C         34.25827       63.65977      -31.96769
O         35.50874       63.79640      -31.48601
O         33.68858       64.62680      -32.44676
H         33.52069       62.98452      -29.44040
H         31.94336       61.22569      -31.12018
H         33.36025       61.99787      -32.97521
H         34.29811       61.57135      -31.50992
N         30.65684       62.87529      -32.85076
C         29.61443       63.64964      -33.50282
C         28.32636       63.72120      -32.70890
O         27.77684       64.80512      -32.57439
H         30.99008       62.03222      -33.34276
H         29.37332       63.14449      -34.46341
H         29.98256       64.67060      -33.74605
N         27.77162       62.59456      -32.18046
C         26.45098       62.54769      -31.55296
C         26.57905       62.35297      -30.05527
O         27.37926       61.53800      -29.62680
C         25.62559       61.40312      -32.17969
C         25.44049       61.60615      -33.68833
O         24.36372       61.35014      -31.56398
H         28.30167       61.71162      -32.24788
H         25.89366       63.49616      -31.72438
H         26.17263       60.44545      -32.00504
H         24.02553       60.42355      -31.67755
H         24.84995       60.76628      -34.11086
H         24.90230       62.55745      -33.88757
H         26.42172       61.63175      -34.20792
N         25.76643       63.04504      -29.20134
C         25.86879       62.98660      -27.74466
C         24.78394       62.09195      -27.15361
O         23.95425       62.53971      -26.37565
C         25.93241       64.42220      -27.12412
C         24.67580       65.29185      -27.42862
C         27.21755       65.13168      -27.59229
C         24.62570       66.58648      -26.61343
H         25.02302       63.62950      -29.60914
H         26.81411       62.48399      -27.44655
H         26.00628       64.28594      -26.02144
H         23.75138       64.74187      -27.17205
H         24.62386       65.54524      -28.50796
H         27.19445       65.30501      -28.68950
H         27.35331       66.10501      -27.08085
H         28.10807       64.51550      -27.34952
H         23.68268       67.12768      -26.84042
H         24.64167       66.35418      -25.52681
H         25.46831       67.26210      -26.85816
N         24.82139       60.75553      -27.41519
C         23.92755       59.77281      -26.80680
C         24.73400       58.95985      -25.79893
O         24.89093       57.75450      -25.92896
C         23.19856       58.95041      -27.90509
C         24.12923       58.21641      -28.88151
O         22.37815       59.80786      -28.65690
H         25.58210       60.40836      -28.01502
H         23.13203       60.27113      -26.20947
H         22.56708       58.17558      -27.40971
H         21.55613       59.96669      -28.12296
H         23.51735       57.63870      -29.60634
H         24.74842       58.92835      -29.46507
H         24.79635       57.50645      -28.35784
N         25.30210       59.62299      -24.75208
C         26.22575       59.02643      -23.78535
C         25.60373       57.92491      -22.93150
O         24.39726       57.72748      -22.96189
C         26.80728       60.12914      -22.83830
C         25.74516       60.80517      -21.94505
O         27.52945       61.09345      -23.56344
H         25.10841       60.63159      -24.69398
H         27.06669       58.58467      -24.35859
H         27.53608       59.65668      -22.14706
H         26.89476       61.67749      -24.05107
H         26.23277       61.54472      -21.27548
H         24.97993       61.33846      -22.54596
H         25.23024       60.05580      -21.30802
N         26.40788       57.21663      -22.08077
C         25.93195       56.32484      -21.03154
C         26.43047       54.88152      -21.18980
O         26.08750       54.07420      -20.33790
C         26.37841       56.97307      -19.68862
C         25.87817       56.28085      -18.40989
C         26.25101       57.09212      -17.15939
C         25.74776       56.39737      -15.88578
N         26.07290       57.17990      -14.69348
H         27.42004       57.39581      -22.10311
H         24.82096       56.28581      -21.03612
H         25.97476       58.01098      -19.68190
H         27.48836       57.04188      -19.65161
H         26.33568       55.27623      -18.31251
H         24.77233       56.18202      -18.45898
H         25.79242       58.10319      -17.22741
H         27.35632       57.20616      -17.10196
H         26.21523       55.39077      -15.80266
H         24.64422       56.26823      -15.94568
H         25.71417       56.67923      -13.84830
H         27.10896       57.29239      -14.60590
H         25.61807       58.12040      -14.74563
N         27.18672       54.44207      -22.24563
C         27.63287       53.04574      -22.31774
C         28.61876       52.73948      -21.20501
O         29.66308       53.36974      -21.14084
C         28.31143       52.67231      -23.65361
C         27.33373       52.53332      -24.83308
C         28.00005       51.90615      -26.04120
O         27.31163       51.74554      -27.18548
O         29.17756       51.58157      -26.01539
H         27.43403       55.08993      -23.00790
H         26.75138       52.37452      -22.21506
H         28.75617       51.66096      -23.51070
H         29.13377       53.37893      -23.90034
H         26.90787       53.52677      -25.08889
H         26.50257       51.85495      -24.54075
N         28.36759       51.73103      -20.32467
C         29.29881       51.32420      -19.29166
H         30.22837       51.93194      -19.29195
H         28.81430       51.41733      -18.29874
H         29.58244       50.26305      -19.45749
H         27.48753       51.20006      -20.40229
Ca        27.19437       53.71016      -28.19892
O         26.34096       51.53742      -30.49377
H         26.24113       50.73908      -29.91649
H         25.55666       51.50731      -31.09743
O         24.65737       54.95114      -29.24848
H         23.91249       54.72138      -29.85831
H         24.35276       54.64810      -28.35624
O         30.35317       54.44755      -28.95643
H         30.48152       54.43435      -27.97460
H         31.06199       55.05190      -29.29183
O         29.58552       51.43613      -29.82071
H         29.26542       51.49976      -28.88710
H         30.31533       50.76849      -29.78331

Ca 1.0



