%chk=apoCaM-CA-Ng.loop2.water4.frame759.chk
%nprocshared=20
%mem=10GB
%nosave
#b3lyp/svp scf=(tight,noincore,xqc) Test 
#IOP(5/87=12) Density=Current Pop=(MK,readradii) iop(6/33=2) iop(6/42=6)

apoCaM-CA-Ng.loop2.water4.frame759 

   -2  1 
C         73.34009       26.99113        3.97531
C         73.84260       28.19270        3.23151
O         73.21777       28.60200        2.26364
H         72.40755       26.60251        3.51283
H         74.10846       26.19039        3.96158
H         73.12348       27.27183        5.02778
N         74.98411       28.81537        3.63633
C         75.50892       30.01036        2.98459
C         74.51842       31.14921        3.14681
O         74.13147       31.44153        4.27094
C         76.87456       30.39345        3.58850
C         77.49437       31.55548        2.86047
O         77.74845       31.46987        1.66894
O         77.77986       32.69311        3.52109
H         75.49424       28.41939        4.44198
H         75.67825       29.78336        1.90773
H         77.56809       29.52831        3.50334
H         76.75783       30.63980        4.66658
N         74.06524       31.84154        2.06318
C         73.04722       32.88457        2.18047
C         71.70638       32.24301        2.51389
O         71.59055       31.03870        2.32951
C         72.93491       33.63625        0.84683
H         74.45678       31.61656        1.13498
H         73.36859       33.59728        2.96903
H         73.91931       34.07751        0.58221
H         72.63283       32.93886        0.03471
H         72.19619       34.45715        0.89370
N         70.61279       32.91842        2.97113
C         70.52918       34.32630        3.36280
C         71.41602       34.62840        4.56016
O         71.47315       33.82779        5.48316
C         69.05179       34.68390        3.70217
C         68.47878       33.80751        4.79583
O         67.59830       33.00275        4.53711
O         68.99298       33.86175        6.04028
H         69.75859       32.34864        3.07561
H         70.80627       34.98657        2.51685
H         68.45579       34.54062        2.77271
H         68.96518       35.75474        3.99039
N         72.10654       35.79944        4.62913
C         72.84606       36.21763        5.80980
C         74.33025       36.23211        5.55540
O         74.75014       35.83931        4.47507
H         72.07703       36.45092        3.83023
H         72.68249       35.52279        6.66208
H         72.47439       37.22091        6.10915
N         75.22701       36.60794        6.51067
C         74.88006       37.16935        7.81629
C         75.17895       36.20561        8.95325
O         75.15244       36.63284       10.10039
C         75.56556       38.55167        7.98915
C         77.07232       38.52371        8.15626
N         77.65138       39.08494        9.24535
O         77.77937       38.02484        7.29464
H         76.22510       36.49023        6.28706
H         73.79481       37.37758        7.88758
H         75.12195       39.05321        8.87702
H         75.31654       39.17811        7.10524
H         77.08376       39.54020        9.97520
H         78.67683       39.08425        9.35266
N         75.41564       34.87819        8.72860
C         75.72782       33.94758        9.80051
C         74.62531       33.75893       10.83040
O         74.92637       33.17427       11.86085
H         75.40952       34.50703        7.76699
H         76.63553       34.32753       10.31633
H         75.97502       32.94830        9.37932
N         73.33710       34.17688       10.63490
C         72.29183       34.02901       11.65495
C         71.27616       32.95511       11.28153
O         71.31382       32.42174       10.18350
C         71.64839       35.40772       11.97058
C         72.61066       36.26989       12.80085
O         71.30718       36.06551       10.77592
H         73.07626       34.59347        9.72831
H         72.72790       33.63296       12.59696
H         70.73193       35.26150       12.58307
H         70.87346       36.92524       11.01876
H         72.81696       35.76448       13.76939
H         73.56917       36.43656       12.26979
H         72.14737       37.25393       13.02743
N         70.38082       32.53255       12.22440
C         69.49206       31.38052       12.07597
C         68.05998       31.85648       11.96809
O         67.58844       32.56283       12.84890
C         69.64758       30.41707       13.30064
C         68.58213       29.28036       13.27611
C         71.07209       29.83237       13.34748
C         68.55290       28.42820       14.54633
H         70.36260       33.02174       13.13265
H         69.73890       30.80696       11.15531
H         69.47713       31.01305       14.22527
H         68.72918       28.63127       12.38743
H         67.56756       29.72471       13.21247
H         71.83047       30.64101       13.38766
H         71.22059       29.20844       14.25201
H         71.26371       29.20579       12.44971
H         67.71875       27.69725       14.47689
H         69.49205       27.85891       14.68535
H         68.37421       29.07422       15.43318
N         67.29429       31.43908       10.91963
C         65.89311       31.78364       10.73909
C         64.99000       30.54659       10.72969
O         63.79327       30.72723       10.55455
C         65.73779       32.54315        9.40928
C         66.62459       33.75513        9.35382
O         66.48012       34.74491       10.25439
O         67.48346       33.84541        8.49273
H         67.72363       30.84135       10.20306
H         65.54524       32.44593       11.56194
H         64.68430       32.86694        9.27550
H         65.99193       31.86380        8.57170
N         65.46300       29.27209       10.91965
C         64.60739       28.08478       10.88789
C         65.13626       27.08344        9.86236
O         65.45376       25.96326       10.23556
C         64.49560       27.52041       12.32911
C         63.65369       26.26308       12.47641
C         62.37210       26.16089       11.90079
C         64.14618       25.17753       13.22764
C         61.61278       24.99629       12.06183
C         63.37371       24.02407       13.40260
C         62.11026       23.93163       12.81615
H         66.46204       29.11866       11.11514
H         63.57821       28.35332       10.57586
H         64.01938       28.31269       12.94542
H         65.51243       27.34348       12.74608
H         61.95722       26.97067       11.31793
H         65.12037       25.22825       13.69780
H         60.63419       24.92055       11.60527
H         63.75332       23.20164       13.99603
H         61.51535       23.03649       12.94893
N         65.24616       27.40286        8.53088
C         65.70313       26.47705        7.49766
C         67.07580       25.86620        7.72888
O         67.43639       24.95323        6.99737
C         65.77746       27.35298        6.24098
C         64.66865       28.34951        6.47669
C         64.83452       28.66653        7.95984
H         64.93250       25.67775        7.42209
H         66.72509       27.93659        6.26892
H         65.73945       26.80018        5.27849
H         64.67544       29.24100        5.81360
H         63.70772       27.80463        6.33966
H         65.63353       29.40931        8.15356
H         63.85839       29.03081        8.34292
N         67.92116       26.35292        8.67985
C         69.23080       25.78669        8.94721
C         69.03634       24.41938        9.57551
O         69.53865       23.44272        9.03785
C         70.07382       26.69700        9.88124
C         70.74046       27.92722        9.20240
C         69.89695       29.08583        8.72489
O         70.51663       30.12937        8.13103
O         68.69076       29.10574        8.86066
H         67.61740       27.14513        9.25281
H         69.80866       25.67556        8.00128
H         70.93880       26.07941       10.21268
H         69.50895       26.98208       10.79356
H         71.32772       27.56079        8.33324
H         71.45581       28.35558        9.93646
N         68.28999       24.28191       10.70905
C         68.04133       23.00977       11.35745
H         66.95052       22.80073       11.35049
H         68.56285       22.16753       10.85610
H         68.38879       23.06053       12.41023
H         67.85654       25.11722       11.12918
Ca        69.54998       32.01286        7.25940
O         72.92138       32.22301        7.76422
H         73.28263       32.05080        8.66912
H         73.72521       32.37686        7.20889
O         71.04294       30.40118        5.22338
H         71.74749       29.70684        5.20115
H         70.19515       29.89152        5.25174
O         67.25870       30.56741        6.37371
H         67.42269       30.66979        7.34268
H         67.95477       29.92807        6.08319
O         70.43459       35.30683        7.97321
H         70.49682       34.73345        8.77659
H         69.56662       35.77347        8.06406

Ca 1.0



