%chk=apoCaM-CA-Ng.loop2.water3.frame191.chk
%nprocshared=20
%mem=10GB
%nosave
#b3lyp/svp scf=(tight,noincore,xqc) Test 
#IOP(5/87=12) Density=Current Pop=(MK,readradii) iop(6/33=2) iop(6/42=6)

apoCaM-CA-Ng.loop2.water3.frame191 

   -2  1 
C        108.92781       47.78284       20.12298
C        110.35166       48.01550       20.53406
O        110.73490       47.61420       21.62420
H        108.42633       48.75680       19.94456
H        108.90413       47.18449       19.18745
H        108.37274       47.23136       20.91203
N        111.20834       48.65206       19.68647
C        112.61698       48.87013       20.00410
C        112.82320       49.87473       21.14191
O        113.95782       50.02366       21.56202
C        113.36208       49.34460       18.73403
C        114.85366       49.41082       18.91679
O        115.48334       48.40431       19.20157
O        115.50284       50.57987       18.75820
H        110.85037       48.93944       18.76153
H        113.04189       47.88496       20.30200
H        112.97410       50.34299       18.43273
H        113.16144       48.63142       17.90519
N        111.79582       50.62376       21.64895
C        111.89239       51.63836       22.70004
C        112.18076       51.05627       24.07726
O        111.27352       51.05440       24.89476
C        112.85689       52.77356       22.32928
H        110.85911       50.51446       21.23637
H        110.88117       52.10343       22.77078
H        113.90396       52.42056       22.24263
H        112.55742       53.22008       21.35757
H        112.82468       53.56702       23.10623
N        113.41281       50.59418       24.43356
C        113.73126       50.06642       25.75647
C        114.22435       48.62462       25.67333
O        114.66313       48.10210       26.68897
C        114.80195       50.96566       26.40618
C        114.32916       52.38921       26.53176
O        114.94100       53.28978       25.98032
O        113.23229       52.67962       27.25661
H        114.19032       50.65183       23.76623
H        112.84178       50.06978       26.42512
H        115.73282       50.93358       25.79818
H        115.03751       50.59190       27.42650
N        114.14867       47.90151       24.51468
C        114.61413       46.52921       24.38114
C        113.97306       45.61966       25.39890
O        114.68984       44.95326       26.13273
H        113.72292       48.32005       23.67641
H        115.71990       46.49775       24.49324
H        114.36145       46.16507       23.36158
N        112.62061       45.58734       25.53997
C        111.96511       44.82939       26.60229
C        111.89436       43.34337       26.28742
O        112.31314       42.91898       25.21915
C        110.58589       45.45142       26.90607
C        110.76840       46.85455       27.44171
N        111.40533       47.06405       28.61978
O        110.34654       47.80793       26.80732
H        112.05654       46.21933       24.94947
H        112.57148       44.91803       27.53013
H        110.03727       44.87205       27.67711
H        109.97167       45.45752       25.97827
H        111.76326       46.27593       29.17877
H        111.53810       48.01772       28.98350
N        111.41334       42.48729       27.23350
C        111.42308       41.03702       27.12498
C        110.02902       40.47319       27.24373
O        109.28734       40.90033       28.11863
H        111.07073       42.88030       28.12325
H        112.02152       40.65188       27.97720
H        111.90817       40.68291       26.18986
N        109.61623       39.46084       26.42447
C        108.26814       38.89838       26.50333
C        107.23381       39.84397       25.89528
O        106.04773       39.57698       26.02208
C        108.18517       37.48160       25.86944
C        108.42294       37.43815       24.35231
O        109.05479       36.59604       26.53211
H        110.29563       39.06616       25.75853
H        108.02354       38.75556       27.58052
H        107.15369       37.09980       26.03566
H        109.98535       36.82202       26.27232
H        107.66697       38.05210       23.83010
H        109.43497       37.80091       24.08185
H        108.31802       36.39307       23.99157
N        107.61832       40.96455       25.21647
C        106.70552       41.95065       24.65237
C        106.92657       43.28247       25.35130
O        107.77655       43.36599       26.22855
C        106.88124       42.02425       23.09399
C        108.33805       42.20504       22.57343
C        106.30704       40.74809       22.45803
C        109.01853       43.50914       22.97540
H        108.61969       41.16376       25.10006
H        105.64578       41.68407       24.86157
H        106.26241       42.85855       22.70050
H        108.31201       42.19729       21.46124
H        108.97475       41.35072       22.88750
H        105.24338       40.61145       22.74721
H        106.34939       40.81217       21.34931
H        106.88157       39.85834       22.77541
H        110.02373       43.55718       22.50582
H        108.42223       44.36819       22.60945
H        109.16770       43.57498       24.06894
N        106.18933       44.37631       25.00790
C        106.40297       45.69239       25.59649
C        105.11887       46.23908       26.23479
O        105.10045       47.39959       26.62125
C        106.97376       46.59988       24.48573
C        107.61958       47.86184       24.98735
O        108.16908       48.60808       24.19265
O        107.65768       48.15321       26.30189
H        105.48208       44.29310       24.26221
H        107.18153       45.64097       26.38888
H        106.19122       46.82334       23.72850
H        107.79578       46.04954       23.98519
N        104.02016       45.44871       26.43742
C        102.79712       45.94025       27.06879
C        102.07462       46.89404       26.12439
O        101.77395       46.46354       25.02163
C        101.83026       44.77278       27.37182
C        100.60174       45.28329       28.08997
C        100.66557       45.62414       29.45212
C         99.39371       45.45933       27.39375
C         99.53685       46.12798       30.10621
C         98.27251       45.97791       28.04771
C         98.34275       46.30907       29.40331
H        104.06215       44.45162       26.18127
H        103.07032       46.40671       28.03864
H        102.31555       43.98650       27.98983
H        101.54459       44.29566       26.40797
H        101.58775       45.49773       30.00581
H         99.32736       45.22034       26.33976
H         99.58936       46.38412       31.15652
H         97.35035       46.12784       27.50152
H         97.47274       46.70875       29.90798
N        101.68752       48.15823       26.47351
C        100.93889       49.05019       25.59422
C        101.63521       49.31379       24.26883
O        100.98411       49.28771       23.23447
C        100.81457       50.33952       26.41570
C        100.74039       49.79274       27.82392
C        101.84225       48.73904       27.79234
H         99.92569       48.61867       25.42593
H        101.75746       50.92919       26.35582
H         99.96584       50.99006       26.11240
H        100.83647       50.54265       28.63676
H         99.75942       49.27136       27.93602
H        102.85405       49.19452       27.87030
H        101.65667       48.03265       28.62466
N        102.97501       49.56047       24.23760
C        103.73362       49.87368       23.02250
C        103.75338       48.74953       21.98412
O        104.27583       48.98314       20.90214
C        105.18873       50.21385       23.41058
C        105.27469       51.50340       24.24574
C        106.64776       51.67879       24.81538
O        107.34103       52.63330       24.50370
O        107.09361       50.78553       25.71630
H        103.47423       49.54129       25.14005
H        103.27269       50.76308       22.53912
H        105.82343       50.35475       22.50725
H        105.58740       49.34838       23.97968
H        104.57822       51.47988       25.10816
H        104.99874       52.36414       23.59949
N        103.22466       47.51734       22.21572
C        103.23147       46.46876       21.21841
H        102.66343       46.79448       20.32088
H        104.27507       46.22133       20.93143
H        102.74920       45.55464       21.62744
H        102.80963       47.29975       23.12163
Ca       109.11556       50.90182       26.69684
O        108.12391       49.42024       29.27139
H        107.20473       49.63908       28.97477
H        108.14260       49.67090       30.22905
O        111.31910       50.64390       29.00241
H        111.19617       51.38986       28.36447
H        112.29170       50.45937       28.98267
O        109.14515       53.60663       28.01056
H        108.29729       53.52440       27.50527
H        109.83272       53.76807       27.31629

Ca 1.0



