%chk=apoCaM-CA-Ng.loop1.water2.frame912.chk
%nprocshared=20
%mem=10GB
%nosave
#b3lyp/svp scf=(tight,noincore,xqc) Test 
#IOP(5/87=12) Density=Current Pop=(MK,readradii) iop(6/33=2) iop(6/42=6)

apoCaM-CA-Ng.loop1.water2.frame912 

   0  1 
C         -9.64872       34.59891       24.39419
C         -8.59774       35.52348       24.94622
O         -8.42983       36.61363       24.41963
H        -10.64034       35.09957       24.43051
H         -9.41229       34.33330       23.34426
H         -9.71973       33.66300       24.98950
N         -7.88106       35.16100       26.04566
C         -6.96523       36.04859       26.75574
C         -5.73087       35.30624       27.25398
O         -5.83011       34.15730       27.65532
C         -7.72485       36.81790       27.85834
C         -8.90450       36.08215       28.46921
O        -10.02488       36.51429       28.24518
O         -8.80323       34.97863       29.24094
H         -8.10982       34.26047       26.49228
H         -6.57653       36.83531       26.06726
H         -8.17703       37.69541       27.33801
H         -7.02875       37.23911       28.61429
N         -4.50522       35.90976       27.19264
C         -3.24769       35.22404       27.47901
C         -3.13939       34.69594       28.90397
O         -3.29090       35.45338       29.85223
C         -2.02940       36.13965       27.19890
C         -0.72693       35.31753       27.27785
C          0.53385       36.12934       26.97424
C          1.76771       35.21856       26.80115
N          2.05372       34.39977       27.98254
H         -4.45722       36.88433       26.85544
H         -3.17237       34.37817       26.76001
H         -2.00670       36.99216       27.91414
H         -2.11404       36.54980       26.16842
H         -0.80487       34.49285       26.53683
H         -0.61749       34.88381       28.29345
H          0.70399       36.87358       27.78321
H          0.39570       36.67752       26.01744
H          2.64897       35.85780       26.57641
H          1.60364       34.54804       25.92767
H          2.19153       35.00461       28.82345
H          1.28457       33.71419       28.15378
H          2.92650       33.85064       27.80874
N         -2.73137       33.40667       29.09178
C         -2.39621       32.79870       30.38094
C         -0.91923       32.42811       30.34971
O         -0.47449       31.97543       29.30285
C         -3.23668       31.52798       30.58469
C         -4.68220       31.83402       30.33377
O         -5.27673       31.27968       29.42313
O         -5.28752       32.80765       31.03380
H         -2.58814       32.82223       28.25363
H         -2.61589       33.50140       31.21269
H         -3.08613       31.14540       31.61801
H         -2.90999       30.74282       29.86740
N         -0.05056       32.59344       31.38546
C         -0.38798       32.93675       32.75715
C          0.86056       33.31771       33.53934
O          1.84245       33.72534       32.93474
H          0.92812       32.35785       31.18938
H         -0.87565       32.04686       33.21404
H         -1.07824       33.80054       32.81384
N          0.86959       33.28949       34.90103
C          2.01174       33.75534       35.68880
C          3.24916       32.89899       35.43807
O          3.22376       31.71261       35.73769
C          1.64518       33.75593       37.19132
C          2.68843       34.36811       38.09309
O          2.45190       34.43664       39.41668
O          3.73320       34.81790       37.64864
H          0.01796       32.96756       35.38721
H          2.21212       34.81006       35.39614
H          1.44585       32.71432       37.52628
H          0.71292       34.34622       37.32403
N          4.38110       33.44949       34.90149
C          5.61380       32.69829       34.69036
C          5.49887       31.58204       33.66940
O          6.45607       30.83598       33.52184
H          4.38716       34.45378       34.66791
H          5.93271       32.26940       35.66420
H          6.41440       33.38707       34.34139
N          4.37794       31.41573       32.91593
C          4.17581       30.33712       31.95957
C          2.94480       29.54487       32.38142
O          2.24689       29.96045       33.29922
C          4.10865       30.96098       30.53642
C          3.85553       29.96973       29.40563
O          3.12292       31.95487       30.46876
H          3.60932       32.08525       33.01427
H          5.03480       29.63153       31.98708
H          5.10757       31.41470       30.33202
H          3.54112       32.81198       30.74580
H          2.83462       29.55120       29.48572
H          3.90993       30.49882       28.43100
H          4.61169       29.15772       29.41577
N          2.64585       28.35068       31.79977
C          1.54700       27.52368       32.27598
C          2.00506       26.85674       33.56701
O          1.31802       26.97678       34.57117
C          1.02763       26.53441       31.18676
C          0.89438       27.19078       29.77962
C         -0.33319       25.94435       31.61510
C          0.03276       28.45906       29.71382
H          3.27317       27.97263       31.07718
H          0.67723       28.18718       32.48800
H          1.75227       25.69924       31.07060
H          0.48820       26.44498       29.06245
H          1.90451       27.44861       29.40662
H         -1.09279       26.74670       31.74378
H         -0.71242       25.23764       30.84614
H         -0.24764       25.40028       32.57736
H          0.04879       28.85425       28.67548
H         -1.02042       28.24992       29.98634
H          0.43440       29.25261       30.37772
N          3.22842       26.24010       33.62916
C          3.82617       25.74811       34.87235
C          4.12321       24.26309       34.78141
O          4.02984       23.68059       33.70915
C          5.15313       26.52413       35.16042
C          4.94351       28.03013       35.29515
O          5.75536       26.08248       36.35231
H          3.79832       26.18019       32.77056
H          3.12270       25.89526       35.71991
H          5.84937       26.37000       34.29878
H          6.55009       25.53912       36.10733
H          4.53083       28.45510       34.36184
H          4.25870       28.25039       36.14087
H          5.92147       28.52124       35.49436
N          4.51446       23.59632       35.90451
C          4.94539       22.20707       35.92624
C          4.05831       21.34390       36.80984
O          4.30312       20.14620       36.85459
C          6.42511       22.13947       36.39316
C          6.63666       22.61601       37.84278
O          7.20818       22.92083       35.52677
H          4.52700       24.11132       36.79482
H          4.89880       21.77844       34.90068
H          6.75092       21.07415       36.33159
H          8.12237       22.53420       35.52695
H          7.70978       22.53713       38.11404
H          6.33584       23.67405       37.98218
H          6.06149       21.98265       38.54813
N          3.01886       21.85933       37.53739
C          2.19727       21.04018       38.42205
C          1.03279       21.82752       39.00316
O          1.20751       22.95257       39.45261
C          3.01821       20.41185       39.58289
C          3.59671       21.44022       40.56805
C          4.44954       20.76555       41.64696
C          4.97634       21.80966       42.64056
N          5.83429       21.19225       43.64997
H          2.79233       22.86003       37.46116
H          1.78480       20.19637       37.82450
H          3.84452       19.79768       39.17402
H          2.35610       19.71888       40.14906
H          2.76834       21.97927       41.07256
H          4.22057       22.17382       40.01674
H          5.30522       20.24579       41.16320
H          3.83857       20.01479       42.19605
H          4.11615       22.30717       43.14292
H          5.55835       22.58389       42.09300
H          6.16250       21.93019       44.31416
H          5.30230       20.46699       44.18347
H          6.66711       20.75614       43.19154
N         -0.16306       21.20555       39.15730
C         -1.27190       21.76298       39.91987
C         -1.86215       23.01607       39.27458
O         -1.91884       24.02073       39.96983
C         -2.26345       20.62266       40.26070
C         -3.32201       20.96182       41.32621
C         -4.53451       21.68548       40.81416
O         -4.66137       21.96053       39.63206
O         -5.53218       21.97388       41.67113
H         -0.24386       20.23455       38.81635
H         -0.86592       22.06347       40.91410
H         -1.62778       19.83951       40.73524
H         -2.72758       20.16004       39.36526
H         -2.85024       21.53073       42.15811
H         -3.69391       20.00308       41.74805
N         -2.29117       23.11159       37.98048
C         -2.24625       22.06653       36.98129
H         -1.57567       22.39145       36.15599
H         -1.88044       21.10355       37.36980
H         -3.26313       21.91045       36.56673
H         -2.65000       24.02552       37.66008
Ca        -7.07058       33.86625       30.15914
O         -7.05117       36.17893       31.77256
H         -6.72089       35.58450       32.49249
H         -8.01079       35.94938       31.68566
O         -7.17645       31.69363       26.88643
H         -7.59364       31.70638       25.98860
H         -7.55787       30.89494       27.32946

Ca 1.0



