%chk=apoCaM-CA-Ng.loop4.water5.frame15.chk
%nprocshared=20
%mem=10GB
%nosave
#b3lyp/svp scf=(tight,noincore,xqc) Test 
#IOP(5/87=12) Density=Current Pop=(MK,readradii) iop(6/33=2) iop(6/42=6)

apoCaM-CA-Ng.loop4.water5.frame15 

   -3  1 
C         77.73318       45.90264       71.80878
C         79.10955       46.22755       72.30253
O         79.55420       47.34977       72.11797
H         77.27800       46.78131       71.30324
H         77.78333       45.05887       71.09002
H         77.09199       45.61590       72.66879
N         79.82964       45.28291       72.97381
C         81.15862       45.48764       73.54285
C         81.14074       46.62553       74.55372
O         81.89865       47.57032       74.42069
C         82.26507       45.52535       72.44892
C         82.15406       46.58509       71.38623
O         82.26607       47.88544       71.69826
O         82.00282       46.26408       70.21790
H         79.38895       44.36394       73.13382
H         81.41035       44.58103       74.13797
H         82.24109       44.53749       71.93710
H         83.26003       45.61912       72.93557
N         80.25496       46.56308       75.59714
C         80.07331       47.52522       76.69052
C         81.18247       47.46003       77.73403
O         80.87247       47.13865       78.87397
C         79.79639       48.97741       76.20881
C         79.54459       49.96438       77.38397
C         78.61419       49.01641       75.23330
C         78.34470       49.64142       78.28176
H         79.61282       45.75532       75.60955
H         79.15267       47.19646       77.22315
H         80.68931       49.36059       75.67033
H         79.37971       50.97257       76.95601
H         80.44943       50.01783       78.02498
H         78.43047       50.06471       74.92645
H         78.83671       48.42089       74.32845
H         77.68871       48.61246       75.69157
H         77.39918       49.63317       77.70415
H         78.47325       48.66685       78.79328
H         78.25636       50.42392       79.06455
N         82.48042       47.76131       77.45290
C         83.51724       47.75224       78.47745
C         83.30496       48.89031       79.48032
O         83.14682       48.57535       80.65101
C         84.93836       47.76781       77.86681
C         85.14907       46.58252       76.96258
O         85.03085       45.33106       77.44698
O         85.42765       46.74867       75.78570
H         82.75093       47.98897       76.49296
H         83.45432       46.78244       79.02444
H         85.68697       47.71621       78.68650
H         85.13817       48.68955       77.29243
N         83.28128       50.22555       79.16238
C         83.41577       50.79023       77.82934
C         84.67453       51.62553       77.73385
O         85.71644       51.12771       78.13655
H         83.15140       50.90039       79.93278
H         82.50575       51.37252       77.59345
H         83.48362       50.01312       77.05996
N         84.72179       52.87601       77.17959
C         83.59217       53.58847       76.56802
C         82.98434       52.77950       75.41191
O         83.60756       51.80244       75.02097
C         84.07346       54.97748       76.06764
C         85.03209       54.89187       74.89851
O         84.73632       55.40408       73.83073
O         86.21766       54.26345       75.01786
H         85.64435       53.33723       77.18886
H         82.84131       53.73676       77.36774
H         84.56597       55.52128       76.90190
H         83.21151       55.59406       75.76633
N         81.80200       53.06589       74.77969
C         80.85884       54.14258       75.04904
C         80.15669       54.03189       76.38081
O         80.46620       53.15251       77.16976
H         81.53165       52.44482       74.00423
H         80.05805       54.08627       74.27872
H         81.33280       55.13106       74.92922
N         79.15917       54.91458       76.67907
C         78.41825       54.90307       77.93710
C         76.91880       54.68171       77.74902
O         76.22509       54.66070       78.75686
C         78.69332       56.20514       78.72009
C         78.16448       57.48116       78.03539
C         78.43678       58.72904       78.84238
N         78.02268       59.93034       78.38030
O         79.02807       58.66776       79.91125
H         78.92608       55.63559       75.97982
H         78.77858       54.07114       78.58197
H         79.79145       56.29597       78.87419
H         78.21629       56.11948       79.72195
H         77.06561       57.39500       77.89456
H         78.64231       57.60620       77.04238
H         77.52402       60.00335       77.48268
H         78.20060       60.78975       78.92060
N         76.34247       54.47857       76.52331
C         74.91137       54.22923       76.35404
C         74.32457       55.26708       75.40077
O         73.85509       54.91652       74.32618
C         74.67455       52.76070       75.88337
C         73.17298       52.40546       75.82928
C         75.37112       51.75335       76.81390
H         76.92880       54.45351       75.67661
H         74.37338       54.32854       77.32268
H         75.10614       52.63791       74.87617
H         72.71281       52.50159       76.83617
H         72.60643       53.05037       75.13092
H         73.04025       51.35978       75.47831
H         74.97551       51.83571       77.84904
H         75.20416       50.71684       76.44900
H         76.46772       51.92261       76.83236
N         74.27726       56.58199       75.75820
C         73.57050       57.57413       74.94817
C         74.19910       57.85870       73.58853
O         73.58828       58.61562       72.84408
C         73.42656       58.92222       75.70390
C         74.72415       59.67426       75.92868
N         74.69403       60.92554       76.44163
O         75.79894       59.17519       75.62983
H         74.65747       56.85618       76.67739
H         72.54030       57.18534       74.78312
H         72.92373       58.76027       76.68142
H         72.76511       59.57974       75.09737
H         73.79776       61.37441       76.68041
H         75.56665       61.45753       76.57729
N         75.42933       57.38765       73.22181
C         76.11617       57.87949       72.03264
C         76.46149       56.75449       71.07418
O         77.25792       55.89621       71.42794
C         77.38936       58.62051       72.49745
C         78.10114       59.35634       71.39187
C         79.39743       58.98206       71.00501
C         77.48377       60.44865       70.75974
C         80.06049       59.68026       69.99219
C         78.15255       61.15291       69.75505
C         79.44038       60.77097       69.36551
O         80.07211       61.46004       68.39433
H         75.94724       56.75322       73.84743
H         75.47482       58.61230       71.49897
H         78.06757       57.88359       72.98310
H         77.12149       59.37337       73.27020
H         79.89399       58.14647       71.48259
H         76.49088       60.76481       71.05506
H         81.05705       59.37525       69.69947
H         77.67007       61.99917       69.28231
H         80.96433       61.23016       68.09824
N         75.89442       56.71471       69.82904
C         76.25639       55.79881       68.74390
C         76.22953       54.31478       69.09771
O         76.73176       53.52948       68.30581
C         77.58599       56.22194       68.06317
C         78.86870       56.01016       68.88307
C         80.11479       56.38811       68.12533
O         80.06046       56.81929       66.98339
O         81.31361       56.25059       68.72175
H         75.17111       57.41563       69.60533
H         75.51019       55.93982       67.92910
H         77.50770       57.29340       67.77180
H         77.68614       55.62952       67.12586
H         78.95210       54.94139       69.17315
H         78.84222       56.63397       69.78982
N         75.63367       53.84266       70.22935
C         75.68691       52.44031       70.63463
C         74.32988       51.76249       70.46056
O         74.24728       50.56194       70.67930
C         76.18909       52.40916       72.09946
C         76.36964       51.03412       72.77692
C         77.55059       50.18997       72.29562
O         77.48031       49.84804       70.94241
O         78.76848       50.84413       72.51755
H         75.11362       54.49423       70.83560
H         76.40048       51.88675       69.99017
H         75.43820       52.97289       72.69140
H         77.15011       52.96414       72.17369
H         75.43769       50.43982       72.74022
H         76.56763       51.21920       73.85252
N         73.22557       52.43934       70.03101
C         71.95438       51.77478       69.83845
H         71.19322       52.50370       69.48841
H         72.05744       50.97494       69.07397
H         71.60893       51.32957       70.79573
H         73.26807       53.44731       69.82660
Ca        79.58253       50.55809       70.43642
O         82.16052       50.33164       72.85237
H         81.32710       50.00028       73.27199
H         82.88714       49.89355       73.36259
O         79.42484       48.21563       68.57756
H         79.66929       47.25826       68.51876
H         80.11586       48.68340       68.04413
O         82.66183       50.20390       69.33632
H         82.77981       50.94497       68.69019
H         83.09335       49.42510       68.90297
O         81.66785       52.84734       71.14120
H         82.42256       53.14547       71.70871
H         80.86412       53.23580       71.56989
O         79.66898       51.99948       67.84931
H         80.30502       52.39119       68.49956
H         78.81222       51.94551       68.34238

Ca 1.0



