%chk=apoCaM-CA-Ng.loop2.water3.frame45.chk
%nprocshared=20
%mem=10GB
%nosave
#b3lyp/svp scf=(tight,noincore,xqc) Test 
#IOP(5/87=12) Density=Current Pop=(MK,readradii) iop(6/33=2) iop(6/42=6)

apoCaM-CA-Ng.loop2.water3.frame45 

   -2  1 
C         66.86339       37.43768       58.35383
C         68.12247       38.25445       58.33688
O         68.55224       38.64711       57.26133
H         66.03114       38.02480       57.91211
H         67.01319       36.51489       57.75551
H         66.58276       37.14355       59.38667
N         68.77600       38.55511       59.49710
C         70.00733       39.34146       59.52148
C         71.15754       38.62445       58.81833
O         72.14735       39.27344       58.51223
C         70.39944       39.65851       60.98108
C         71.60296       40.55339       61.08408
O         71.58043       41.67418       60.60114
O         72.71211       40.12090       61.71391
H         68.37002       38.23089       60.38880
H         69.79460       40.29706       58.99087
H         70.60279       38.70365       61.51547
H         69.54975       40.16420       61.48863
N         71.10598       37.28589       58.55318
C         72.14817       36.52951       57.87433
C         72.32624       37.01134       56.44791
O         73.44597       37.26840       56.02556
C         73.45841       36.52740       58.68218
H         70.28116       36.74469       58.84861
H         71.80238       35.47372       57.80992
H         73.27282       36.13674       59.70472
H         74.21098       35.87536       58.18982
H         73.89049       37.54592       58.76641
N         71.23312       37.14773       55.63905
C         71.29800       37.49691       54.22326
C         71.97153       38.85062       53.96784
O         72.29259       39.13341       52.82164
C         71.96480       36.32664       53.45915
C         71.86309       36.46997       51.96445
O         72.87256       36.49557       51.27942
O         70.65633       36.55582       51.37261
H         70.30230       36.96157       56.03892
H         70.25760       37.56451       53.83245
H         71.43614       35.38527       53.72799
H         73.02846       36.22186       53.75927
N         72.18466       39.76199       54.96798
C         72.87636       41.02789       54.75638
C         72.19589       41.97405       53.78017
O         72.80125       42.98520       53.45387
H         71.87755       39.55434       55.92667
H         73.89195       40.79515       54.36714
H         72.99881       41.55611       55.72647
N         70.97409       41.70741       53.23654
C         70.39479       42.50510       52.16059
C         70.02725       43.89631       52.62437
O         69.17640       44.02605       53.49467
C         69.13839       41.80712       51.59799
C         69.46144       40.41590       51.11093
N         70.33784       40.21567       50.09994
O         68.93387       39.45617       51.64894
H         70.46470       40.86781       53.54211
H         71.14115       42.57180       51.33905
H         68.71531       42.39723       50.75662
H         68.36654       41.74412       52.39892
H         70.79516       41.00958       49.63012
H         70.56069       39.25969       49.78568
N         70.62098       44.99486       52.07330
C         70.23594       46.34364       52.44908
C         68.85322       46.69053       51.93741
O         68.29607       45.95672       51.13157
H         71.37503       44.87563       51.38016
H         70.94509       47.08343       52.01915
H         70.28026       46.42999       53.55684
N         68.23673       47.82055       52.38371
C         66.91131       48.26662       51.93704
C         65.76633       47.28655       52.24922
O         64.64517       47.58572       51.85980
C         66.58064       49.68302       52.49658
C         66.47970       49.75284       54.03107
O         67.49563       50.63636       52.01043
H         68.76240       48.39776       53.05514
H         66.94625       48.36977       50.82961
H         65.58496       49.98083       52.10110
H         68.35624       50.52469       52.48979
H         67.44424       49.50289       54.51830
H         66.19967       50.78370       54.33609
H         65.70088       49.05639       54.40341
N         65.95838       46.09715       52.89239
C         64.90272       45.11012       53.13133
C         65.14300       43.88038       52.25934
O         66.12330       43.85822       51.52548
C         64.84515       44.73794       54.65019
C         66.16549       44.07571       55.14408
C         64.48479       45.98046       55.48218
C         66.08621       43.51652       56.56395
H         66.90138       45.83975       53.19674
H         63.90953       45.51137       52.83117
H         64.02345       44.00382       54.78973
H         67.00802       44.79639       55.10878
H         66.41333       43.21892       54.48279
H         63.53114       46.41798       55.11789
H         64.33687       45.72042       56.54934
H         65.28231       46.74956       55.41022
H         65.91631       44.31945       57.30830
H         65.27531       42.76145       56.63500
H         67.05018       43.02373       56.81451
N         64.30954       42.79707       52.31826
C         64.59378       41.54887       51.61561
C         63.37896       41.02811       50.83485
O         63.30829       39.83584       50.57712
C         65.12022       40.55369       52.67591
C         65.82989       39.34236       52.13021
O         66.41805       38.49462       52.99525
O         65.94248       39.14991       50.92957
H         63.50853       42.81086       52.96783
H         65.42421       41.69429       50.89079
H         64.30163       40.25489       53.36546
H         65.89468       41.08364       53.27339
N         62.40567       41.87390       50.38005
C         61.25371       41.43210       49.58500
C         60.39433       40.44082       50.36763
O         59.85151       40.83677       51.38912
C         60.38784       42.65913       49.20804
C         59.09667       42.29716       48.50588
C         59.09587       41.73078       47.21994
C         57.86847       42.52983       49.15251
C         57.88434       41.40874       46.59442
C         56.66407       42.19917       48.52864
C         56.67076       41.64125       47.24925
H         62.50311       42.88031       50.58058
H         61.62794       40.97524       48.64634
H         60.97073       43.36475       48.57708
H         60.14338       43.19227       50.15340
H         60.02736       41.54587       46.70058
H         57.84151       42.95950       50.14631
H         57.88358       40.97877       45.60132
H         55.72599       42.37682       49.03920
H         55.73467       41.39004       46.76707
N         60.18661       39.15014       49.95110
C         59.31981       38.20884       50.64496
C         59.88328       37.83027       52.00406
O         59.11725       37.77156       52.95609
C         59.19498       37.03989       49.65546
C         60.51478       37.05444       48.92362
C         60.76910       38.55418       48.75904
H         58.28847       38.60461       50.78810
H         58.88208       36.06821       50.09511
H         58.43433       37.32807       48.89328
H         61.27328       36.62112       49.60439
H         60.55081       36.47117       47.97893
H         61.86569       38.70599       48.67486
H         60.24671       38.96956       47.86998
N         61.21383       37.59651       52.18317
C         61.79650       37.20982       53.46613
C         61.68932       38.30303       54.53172
O         62.06679       38.03250       55.66358
C         63.28119       36.82546       53.28115
C         63.46150       35.62871       52.32990
C         64.91085       35.28431       52.16693
O         65.63939       34.90943       53.23480
O         65.43236       35.32732       51.06369
H         61.83761       37.69429       51.37368
H         61.25567       36.31075       53.83725
H         63.71796       36.55414       54.26764
H         63.82852       37.70402       52.88448
H         63.04059       35.85611       51.32897
H         62.92881       34.74372       52.73717
N         61.19621       39.54746       54.26196
C         61.06143       40.59386       55.25541
H         59.99185       40.88244       55.33861
H         61.41655       40.27920       56.25849
H         61.64619       41.48151       54.93516
H         60.89781       39.78921       53.31316
Ca        67.74234       36.82837       52.24590
O         68.70261       34.03311       51.84872
H         68.86181       33.64047       50.95404
H         67.97175       33.48795       52.23448
O         68.09063       35.97153       55.12538
H         67.16604       35.67986       55.32275
H         68.53969       35.16255       54.77260
O         68.15031       37.44414       49.24255
H         68.79198       37.14955       48.54885
H         68.14057       38.43115       49.16760

Ca 1.0



