%chk=apoCaM-CA-Ng.loop2.water2.frame866.chk
%nprocshared=20
%mem=10GB
%nosave
#b3lyp/svp scf=(tight,noincore,xqc) Test 
#IOP(5/87=12) Density=Current Pop=(MK,readradii) iop(6/33=2) iop(6/42=6)

apoCaM-CA-Ng.loop2.water2.frame866 

   -2  1 
C         66.22533       38.69578       95.45199
C         66.12814       38.51419       93.96685
O         67.03793       37.95478       93.37146
H         66.19596       39.77768       95.69805
H         65.37050       38.18612       95.94476
H         67.17127       38.26353       95.84258
N         65.02517       38.95876       93.30376
C         64.82969       38.81376       91.86683
C         63.65794       37.88187       91.56352
O         63.36306       37.69083       90.39176
C         64.63195       40.21732       91.25541
C         64.54465       40.19484       89.75275
O         65.47486       39.76648       89.08774
O         63.43911       40.65113       89.13378
H         64.27579       39.41462       93.84868
H         65.73074       38.36129       91.39615
H         65.49817       40.85736       91.53109
H         63.71151       40.67703       91.67694
N         62.98612       37.21218       92.55070
C         61.91936       36.25337       92.27649
C         60.66937       36.56838       93.09764
O         60.76868       37.38362       94.00484
C         62.45897       34.86990       92.65301
H         63.27636       37.32087       93.53349
H         61.66958       36.27155       91.19720
H         61.74652       34.06966       92.41440
H         63.39134       34.66145       92.08694
H         62.69595       34.83060       93.74010
N         59.45262       35.96563       92.90894
C         59.06805       35.09576       91.79716
C         57.83257       35.67128       91.11176
O         56.91824       36.10087       91.79922
C         58.86522       33.62095       92.22936
C         57.78390       33.26237       93.24588
O         56.50049       33.49379       92.75850
O         57.92128       33.94645       94.45680
H         58.71242       36.19625       93.59049
H         59.88053       35.03702       91.04636
H         59.80810       33.23790       92.65481
H         58.66523       33.02252       91.31279
N         57.74006       35.70974       89.75280
C         56.61769       36.28738       89.02336
C         55.97237       35.24305       88.13995
O         56.23949       35.25981       86.94704
H         58.51227       35.31712       89.19267
H         57.03868       37.08890       88.37744
H         55.86158       36.77073       89.67373
N         55.13465       34.27175       88.60858
C         54.60401       34.19982       89.96657
C         53.56669       35.30538       90.15399
O         52.64402       35.37774       89.35345
C         53.96219       32.80473       90.18823
C         53.55676       32.50027       91.61274
N         52.98920       31.30939       91.90987
O         53.75598       33.30494       92.50640
H         54.82217       33.55517       87.93298
H         55.43877       34.27958       90.68421
H         54.70952       32.03004       89.90962
H         53.07845       32.69105       89.52394
H         52.82382       30.60738       91.17505
H         52.71461       31.08557       92.87691
N         53.64121       36.18854       91.19157
C         52.69955       37.28784       91.38783
C         51.80490       37.09203       92.59833
O         51.03631       37.99174       92.90553
H         54.38836       36.07410       91.89056
H         52.02891       37.41390       90.51025
H         53.28325       38.22643       91.49762
N         51.79867       35.91847       93.28798
C         50.90615       35.60157       94.39201
C         51.71016       35.14481       95.59773
O         52.50818       34.22603       95.47890
C         49.91800       34.48630       93.95829
C         48.88684       35.01048       92.95758
O         50.59488       33.40573       93.36804
H         52.41916       35.16623       92.98208
H         50.29099       36.48001       94.68844
H         49.33144       34.14198       94.84363
H         50.91234       32.82351       94.10036
H         48.29999       35.83770       93.41203
H         49.37886       35.37799       92.03313
H         48.18152       34.19554       92.68686
N         51.49654       35.71412       96.81766
C         52.12092       35.23302       98.05125
C         51.72484       33.77826       98.25535
O         50.53409       33.49868       98.30457
C         51.66282       36.11028       99.26234
C         52.07725       35.54036      100.64679
C         52.15836       37.56269       99.10741
C         53.58233       35.40883      100.86806
H         50.80805       36.47918       96.87551
H         53.22683       35.30914       97.96123
H         50.54945       36.13215       99.26944
H         51.61809       34.53768      100.78439
H         51.66197       36.19494      101.44403
H         51.77638       38.02798       98.17685
H         51.80259       38.18204       99.95783
H         53.26662       37.60531       99.07081
H         53.76381       34.98251      101.87609
H         54.02057       34.72952      100.11582
H         54.08880       36.39285      100.81749
N         52.67432       32.80083       98.37755
C         52.34159       31.38423       98.50972
C         52.71392       30.80840       99.86389
O         52.25636       29.70914      100.14723
C         53.04562       30.56884       97.41056
C         52.66342       31.03259       96.04033
O         51.38291       30.94625       95.63613
O         53.51276       31.47558       95.28402
H         53.66894       33.06869       98.35901
H         51.24139       31.24839       98.41358
H         52.77902       29.49326       97.49679
H         54.14708       30.66533       97.54158
N         53.54720       31.44175      100.74386
C         53.84285       30.86966      102.05432
C         55.02658       31.58510      102.71342
O         54.97834       32.80281      102.81656
C         52.60112       30.99420      102.96581
C         52.81378       30.27019      104.27033
C         53.22005       30.97110      105.41706
C         52.62703       28.87875      104.34250
C         53.44507       30.28795      106.61552
C         52.84079       28.20141      105.54652
C         53.25325       28.90503      106.68119
H         54.00343       32.32148      100.46913
H         54.08561       29.79998      101.90189
H         51.68422       30.58695      102.48843
H         52.40267       32.07407      103.14467
H         53.38090       32.04107      105.37715
H         52.31302       28.32157      103.46806
H         53.77143       30.83084      107.49264
H         52.69049       27.13071      105.59884
H         53.42583       28.37856      107.61072
N         56.10956       30.91025      103.22629
C         57.20830       31.55552      103.94550
C         58.11487       32.46227      103.12337
O         59.09492       32.94018      103.67947
C         58.02996       30.37806      104.48705
C         56.96834       29.32049      104.67962
C         56.18545       29.47006      103.38363
H         56.76893       32.12036      104.79884
H         58.71233       29.99818      103.69104
H         58.63548       30.62029      105.38690
H         57.35524       28.29766      104.86939
H         56.31589       29.62662      105.53087
H         56.76014       29.04463      102.53107
H         55.21557       28.95434      103.50423
N         57.87907       32.73920      101.80698
C         58.77828       33.54739      100.98151
C         59.03047       34.96054      101.50647
O         59.90074       35.61911      100.95299
C         58.25959       33.61515       99.52356
C         56.91196       34.35466       99.41220
C         56.41310       34.36966       98.00027
O         56.22104       35.43033       97.42807
O         56.14868       33.21169       97.36712
H         57.06272       32.31332      101.35266
H         59.76075       33.02456      100.97440
H         58.14775       32.57733       99.13844
H         59.00990       34.13311       98.88582
H         57.02548       35.40033       99.77246
H         56.14673       33.85401      100.03574
N         58.32941       35.49947      102.54695
C         58.59459       36.82035      103.08235
H         59.42889       37.33462      102.56014
H         57.68331       37.44618      102.99162
H         58.86566       36.72982      104.15541
H         57.56886       34.96988      102.99261
Ca        55.71656       34.47781       94.63550
O         56.98072       31.04078       95.37955
H         56.19324       30.66034       95.84299
H         57.61670       31.25845       96.10677
O         55.41819       37.36588       94.56135
H         56.31347       37.09641       94.88848
H         55.57250       37.64723       93.62515

Ca 1.0



