%chk=apoCaM-CA-Ng.loop1.water3.frame1349.chk
%nprocshared=20
%mem=10GB
%nosave
#b3lyp/svp scf=(tight,noincore,xqc) Test 
#IOP(5/87=12) Density=Current Pop=(MK,readradii) iop(6/33=2) iop(6/42=6)

apoCaM-CA-Ng.loop1.water3.frame1349 

   0  1 
C         58.03718       31.95121       94.97163
C         57.96632       33.23656       95.73719
O         58.01409       34.29398       95.12300
H         58.96983       31.90999       94.36981
H         58.02741       31.08236       95.66148
H         57.15707       31.88140       94.30020
N         57.86944       33.21628       97.09765
C         57.78976       34.41748       97.91353
C         59.16492       34.69892       98.50199
O         59.31636       34.75802       99.71441
C         56.72461       34.24260       99.02417
C         55.37006       33.82948       98.52049
O         54.73787       32.78181       99.08691
O         54.81708       34.45989       97.63481
H         57.87169       32.30631       97.58112
H         57.49862       35.29084       97.28528
H         56.62208       35.20948       99.55807
H         57.06477       33.47286       99.75507
N         60.22803       34.87867       97.66949
C         61.60506       35.04523       98.13323
C         62.06493       36.47530       98.04441
O         62.64676       36.93594       99.01918
C         62.58091       34.07406       97.45472
C         62.11655       32.62738       97.64907
C         63.11006       31.61210       97.07195
C         62.66640       30.18999       97.45944
N         63.41726       29.15304       96.75132
H         60.04252       34.84163       96.66218
H         61.65186       34.80474       99.21852
H         63.57367       34.20008       97.94439
H         62.69530       34.30149       96.37534
H         61.13407       32.48262       97.14377
H         61.98413       32.44376       98.73720
H         64.13204       31.79597       97.47370
H         63.13395       31.73751       95.96774
H         61.58895       30.05939       97.22210
H         62.79989       30.06577       98.55876
H         64.44507       29.24248       96.91779
H         63.09736       28.21832       97.09674
H         63.21278       29.20868       95.72697
N         61.80103       37.31002       97.00689
C         61.27052       36.97295       95.67421
C         59.81271       37.39842       95.49424
O         59.13359       37.68090       96.46892
C         62.19807       37.60256       94.62038
C         62.38016       39.03241       94.93039
O         61.37285       39.90186       94.83974
O         63.38338       39.33606       95.52645
H         62.03734       38.29528       97.20330
H         61.33061       35.89866       95.45798
H         61.88199       37.46879       93.57045
H         63.18832       37.10722       94.71261
N         59.24994       37.38831       94.25249
C         57.87547       37.75439       93.95854
C         57.50153       39.25558       94.20147
O         58.35077       40.11379       93.50852
H         59.80796       37.05345       93.45505
H         57.19783       37.09982       94.54697
H         57.69564       37.51809       92.88408
N         56.16032       39.45773       93.63937
C         55.59994       40.83519       93.61737
C         54.32108       40.79771       92.80146
O         53.60266       39.81174       92.90348
C         55.25570       41.39334       95.01479
C         56.43977       41.52003       95.89979
O         57.34456       42.29305       95.62808
O         56.47994       40.79057       97.02587
H         55.48867       38.71680       93.94069
H         56.32190       41.52500       93.13441
H         54.51683       40.73413       95.51400
H         54.81018       42.41022       94.93204
N         53.87625       41.83018       92.03356
C         54.48666       43.14154       91.90697
C         55.72032       43.16132       91.05466
O         55.67764       42.65939       89.93897
H         52.96820       41.70127       91.56089
H         54.66506       43.58625       92.90670
H         53.76146       43.79301       91.37891
N         56.84873       43.78478       91.50278
C         58.05063       43.91860       90.69361
C         59.09389       42.93551       91.20435
O         59.01394       42.53244       92.35174
C         58.51361       45.40653       90.68028
C         59.42235       45.72748       89.49883
O         59.16841       45.72169       91.87571
H         56.85388       44.19131       92.45063
H         57.80138       43.62724       89.64962
H         57.61127       46.05291       90.58494
H         59.42638       46.68008       91.85264
H         59.71531       46.79925       89.54471
H         60.33728       45.10520       89.52386
H         58.86024       45.56505       88.55559
N         60.03159       42.42803       90.35830
C         61.02053       41.38947       90.66422
C         62.00531       41.78845       91.75030
O         61.60385       42.14020       92.84740
C         60.41283       39.99959       91.02030
C         59.21041       39.57418       90.14781
C         61.50826       38.91123       90.97554
C         59.51462       39.47975       88.65671
H         60.01870       42.77001       89.38694
H         61.58327       41.22751       89.72071
H         60.04542       40.02468       92.05098
H         58.36632       40.28014       90.30049
H         58.86291       38.57688       90.50141
H         62.04235       38.92435       90.00161
H         62.25898       39.06714       91.77663
H         61.06332       37.90354       91.11370
H         58.61333       39.11085       88.12537
H         59.77888       40.47837       88.25530
H         60.34181       38.76718       88.46512
N         63.33786       41.67782       91.51754
C         64.35105       41.87271       92.54455
C         64.91667       43.27781       92.51815
O         65.89087       43.52082       93.21829
C         65.45950       40.77460       92.45913
C         66.12001       40.65824       91.08884
O         64.94473       39.50918       92.75335
H         63.64634       41.41278       90.57275
H         63.90646       41.79352       93.55953
H         66.24522       41.02802       93.21038
H         64.59327       39.57512       93.66291
H         67.08271       40.11452       91.19450
H         65.47044       40.05198       90.41820
H         66.29767       41.64901       90.62927
N         64.34190       44.27445       91.78345
C         64.87164       45.62985       91.79508
C         64.60053       46.31163       93.12743
O         63.47649       46.72591       93.37654
C         64.37282       46.44865       90.58147
C         64.93331       45.84929       89.28809
O         62.96622       46.45820       90.49482
H         63.51911       44.06915       91.19957
H         65.97374       45.56098       91.67508
H         64.77903       47.48314       90.66651
H         62.63170       47.27072       90.95147
H         64.44490       44.87612       89.06766
H         64.76056       46.54532       88.44275
H         66.02892       45.67909       89.37675
N         65.60491       46.41405       94.05438
C         65.46049       47.02431       95.37515
C         64.31791       46.35210       96.12426
O         63.26094       46.94284       96.29494
C         65.31962       48.55684       95.26843
C         66.52121       49.18595       94.53251
C         66.40214       50.71871       94.46912
C         67.22897       51.32200       93.32070
N         68.66908       51.20871       93.53933
H         66.52353       46.00640       93.82674
H         66.39603       46.85834       95.95572
H         65.25295       48.97923       96.29438
H         64.39016       48.81462       94.71666
H         66.52042       48.77719       93.49974
H         67.48641       48.91036       95.01514
H         66.67889       51.16876       95.44983
H         65.34674       50.98379       94.25246
H         66.96684       52.39752       93.21141
H         66.94484       50.81583       92.36968
H         69.16637       51.53271       92.67791
H         68.94702       51.82111       94.33978
H         68.94460       50.22048       93.73169
N         64.47484       45.07793       96.57222
C         63.39366       44.24769       97.09565
C         63.41222       42.92736       96.35769
O         62.41280       42.63607       95.71634
C         63.48818       44.01116       98.61676
C         63.00331       45.18490       99.47988
C         63.70203       45.17916      100.81363
O         63.02776       44.92880      101.95086
O         64.89789       45.42588      100.86530
H         65.41049       44.66139       96.47942
H         62.40484       44.72081       96.89673
H         64.52628       43.79141       98.87508
H         62.85623       43.13440       98.89881
H         61.89947       45.09100       99.60566
H         63.22272       46.16164       99.00783
N         64.44755       42.03311       96.37243
C         65.74539       42.10446       97.00437
H         66.43255       42.71825       96.39352
H         65.71412       42.38589       98.05982
H         66.17625       41.07792       97.02758
H         64.33143       41.19922       95.82497
Ca        59.76676       41.40004       94.73543
O         59.98050       44.52175       94.70683
H         59.60220       44.70980       93.82286
H         60.43559       45.36074       94.96375
O         59.57416       40.68176       97.32484
H         59.55933       39.86805       96.77644
H         58.66495       40.73037       97.69429
O         59.94326       43.46535       97.16295
H         59.62350       44.39613       97.26483
H         60.05445       43.13578       98.08758

Ca 1.0



