%chk=apoCaM-CA-Ng.loop4.water5.frame640.chk
%nprocshared=20
%mem=10GB
%nosave
#b3lyp/svp scf=(tight,noincore,xqc) Test 
#IOP(5/87=12) Density=Current Pop=(MK,readradii) iop(6/33=2) iop(6/42=6)

apoCaM-CA-Ng.loop4.water5.frame640 

   -3  1 
C         81.98127       56.40117       -4.30028
C         82.89532       57.38687       -4.96833
O         83.23022       57.19308       -6.12751
H         81.02093       56.34506       -4.85297
H         82.46000       55.39996       -4.28967
H         81.76709       56.69480       -3.25027
N         83.33920       58.47859       -4.28465
C         84.25064       59.48611       -4.81748
C         83.64386       60.18439       -6.01924
O         84.28007       60.28956       -7.06011
C         85.63460       58.87169       -5.11463
C         86.15931       58.15542       -3.90522
O         86.34854       58.82198       -2.75153
O         86.38067       56.95699       -3.95470
H         83.01874       58.61393       -3.31330
H         84.38534       60.26108       -4.02943
H         86.35084       59.66883       -5.40893
H         85.55918       58.15289       -5.95874
N         82.37234       60.66356       -5.93977
C         81.70988       61.32468       -7.06127
C         82.28564       62.72281       -7.26618
O         82.87376       63.24691       -6.32959
C         80.16066       61.36949       -6.85858
C         79.74419       62.19193       -5.60540
C         79.61079       59.92961       -6.82727
C         78.23107       62.34835       -5.45383
H         81.85531       60.48748       -5.06832
H         81.90631       60.70650       -7.95839
H         79.70529       61.86318       -7.73780
H         80.16790       63.21528       -5.68849
H         80.13205       61.73569       -4.67263
H         79.91250       59.39075       -7.75137
H         79.99485       59.36683       -5.95105
H         78.50383       59.91933       -6.80013
H         77.80131       62.83349       -6.35523
H         77.73862       61.36936       -5.28687
H         78.01567       62.98468       -4.56965
N         82.16026       63.43372       -8.42688
C         81.63793       62.92238       -9.69516
C         82.57506       61.83772      -10.20515
O         82.12846       60.73644      -10.49450
C         81.51321       64.05803      -10.73607
C         80.50459       65.10228      -10.31403
O         80.69867       65.84064       -9.20396
O         79.50486       65.29348      -10.98796
H         82.54084       64.39324       -8.41981
H         80.61496       62.51484       -9.57595
H         81.17044       63.61361      -11.69727
H         82.49494       64.54699      -10.91237
N         83.91639       62.07118      -10.24093
C         84.91341       61.05597      -10.53054
C         84.97119       60.67049      -11.98443
O         85.14712       61.55207      -12.81360
H         84.26292       62.99564       -9.94226
H         84.76471       60.17583       -9.86785
H         85.91132       61.48181      -10.28969
N         84.93042       59.35709      -12.35844
C         85.16395       58.91547      -13.73178
C         83.98047       58.17898      -14.34478
O         84.06024       57.87463      -15.52728
C         86.48414       58.10846      -13.80070
C         86.54767       56.91745      -12.88002
O         87.47778       56.87201      -11.90681
O         85.78621       55.97799      -13.01938
H         84.80358       58.63736      -11.63009
H         85.31484       59.79720      -14.39224
H         87.31049       58.79517      -13.51369
H         86.67538       57.77720      -14.84455
N         82.83217       57.90552      -13.65551
C         81.65343       57.33785      -14.30267
C         81.82777       55.93025      -14.85048
O         80.90821       55.45116      -15.49647
H         82.75008       58.16955      -12.66326
H         81.36336       58.01262      -15.13630
H         80.81028       57.31432      -13.57782
N         82.94643       55.19239      -14.60504
C         83.16433       53.82094      -15.05331
C         82.10068       52.87922      -14.51224
O         81.69740       51.95238      -15.20293
C         83.36166       53.73149      -16.58596
C         84.63176       54.48021      -17.02438
C         84.88978       54.33457      -18.50288
N         85.00606       55.42415      -19.29764
O         85.01980       53.21918      -18.98576
H         83.67900       55.59344      -14.01491
H         84.11125       53.47082      -14.58431
H         82.47053       54.12858      -17.11930
H         83.48833       52.66337      -16.86887
H         85.50478       54.05320      -16.48501
H         84.54839       55.55323      -16.75381
H         84.91885       56.37503      -18.91078
H         85.19954       55.31720      -20.30468
N         81.62097       53.05619      -13.24918
C         80.69696       52.14033      -12.59089
C         81.20129       51.73136      -11.20493
O         80.50590       50.95773      -10.56158
C         79.27723       52.77390      -12.47993
C         79.26820       54.09488      -11.69174
C         78.65571       52.98584      -13.86773
H         81.91209       53.89941      -12.73388
H         80.59050       51.20445      -13.18417
H         78.61805       52.05306      -11.94614
H         78.22703       54.46995      -11.59422
H         79.67319       53.94460      -10.66944
H         79.86717       54.87454      -12.20746
H         79.24567       53.70901      -14.46510
H         78.60853       52.02146      -14.41763
H         77.61881       53.37277      -13.76843
N         82.35492       52.23135      -10.65350
C         82.74758       51.97776       -9.27206
C         84.11533       51.29571       -9.24710
O         84.23351       50.25475       -9.87912
C         82.63472       53.32934       -8.51793
C         82.75394       53.23738       -7.01541
N         81.88600       52.48931       -6.29669
O         83.62161       53.87537       -6.43721
H         82.95943       52.86962      -11.18680
H         82.03194       51.27250       -8.80051
H         81.62737       53.75441       -8.72129
H         83.38331       54.04281       -8.93030
H         81.13078       51.96349       -6.75917
H         81.96183       52.44654       -5.26985
N         85.17524       51.78123       -8.53001
C         86.47442       51.11928       -8.44633
C         86.69346       50.59474       -7.04022
O         85.85126       50.83460       -6.18305
C         87.62791       52.04542       -8.91368
C         87.99994       53.19022       -7.98010
C         87.14144       54.28092       -7.73748
C         89.26333       53.18055       -7.35659
C         87.52915       55.31596       -6.87947
C         89.65127       54.22079       -6.50882
C         88.78722       55.28956       -6.26375
O         89.18172       56.28501       -5.44402
H         85.04857       52.61681       -7.96335
H         86.47856       50.23485       -9.12008
H         87.40304       52.44410       -9.92568
H         88.51995       51.39217       -9.02869
H         86.17871       54.35969       -8.21423
H         89.95753       52.36729       -7.52712
H         86.85298       56.14223       -6.70269
H         90.62816       54.19679       -6.04215
H         88.62475       57.05319       -5.25767
N         87.77878       49.82217       -6.73884
C         87.95440       49.21218       -5.42762
C         89.27966       49.64341       -4.81248
O         90.30843       49.18137       -5.28707
C         87.88869       47.67413       -5.55772
C         86.54206       47.21162       -6.14062
C         86.50018       45.72151       -6.31393
O         85.57042       44.99221       -5.66859
O         87.29139       45.16651       -7.06026
H         88.47221       49.61302       -7.47330
H         87.12239       49.50323       -4.76964
H         88.02892       47.20871       -4.55663
H         88.71031       47.32801       -6.22442
H         86.37416       47.67369       -7.13695
H         85.72191       47.53073       -5.46138
N         89.38607       50.53589       -3.77874
C         88.27303       51.30203       -3.20989
C         87.29413       50.40287       -2.47311
O         87.59880       49.24525       -2.21754
C         88.79786       52.41411       -2.25456
C         89.70092       53.43400       -2.98317
C         90.44180       54.34051       -2.03183
O         89.82614       55.29429       -1.30695
O         91.65354       54.23045       -1.93288
H         90.34008       50.73107       -3.43843
H         87.73761       51.79428       -4.05254
H         89.37811       51.91789       -1.44509
H         87.95421       52.96648       -1.78598
H         89.11093       54.02860       -3.70957
H         90.47601       52.88774       -3.55564
N         86.05613       50.87600       -2.16212
C         85.02231       50.08216       -1.53092
H         84.14943       50.01336       -2.21516
H         85.36166       49.05201       -1.29574
H         84.70090       50.57591       -0.59100
H         85.81451       51.84040       -2.42306
Ca        87.71890       56.03211       -1.54206
O         85.57906       54.53063       -2.37168
H         85.05138       53.94214       -1.77684
H         85.55303       54.09894       -3.26189
O         86.89582       59.19823        0.42547
H         86.99496       59.11441        1.40712
H         87.08829       60.15116        0.23699
O         88.99929       59.60405       -2.16872
H         89.14505       59.51811       -3.14441
H         89.84446       59.28963       -1.76211
O         87.00013       55.70252        1.28502
H         87.74112       55.41452        1.87504
H         86.18297       55.58604        1.83121
O         89.75894       57.67141        0.63832
H         90.35030       58.46313        0.57996
H         90.37999       56.90762        0.74276

Ca 1.0



