%chk=apoCaM-CA-Ng.loop1.water5.frame393.chk
%nprocshared=20
%mem=10GB
%nosave
#b3lyp/svp scf=(tight,noincore,xqc) Test 
#IOP(5/87=12) Density=Current Pop=(MK,readradii) iop(6/33=2) iop(6/42=6)

apoCaM-CA-Ng.loop1.water5.frame393 

   0  1 
C        -10.40094       70.02907       24.71543
C         -9.80575       68.64991       24.68369
O         -8.71268       68.48204       24.16307
H        -11.38917       70.03351       25.22457
H         -9.72447       70.71427       25.26726
H        -10.54038       70.40191       23.68005
N        -10.47964       67.60542       25.23402
C         -9.96096       66.24291       25.28836
C        -10.28782       65.46031       24.01381
O        -10.24876       64.24295       24.06551
C        -10.57029       65.51601       26.51803
C        -10.24077       66.19889       27.82314
O         -9.49722       65.56514       28.74888
O        -10.65779       67.32078       28.06127
H        -11.39233       67.79580       25.67718
H         -8.86115       66.24035       25.45997
H        -10.15519       64.48779       26.56258
H        -11.67501       65.43422       26.41675
N        -10.68942       66.06400       22.85627
C        -11.24065       65.31785       21.72586
C        -10.54636       65.61003       20.39898
O        -10.28244       66.77749       20.14742
C        -12.72234       65.71865       21.61574
C        -13.50729       65.19962       22.82742
C        -14.99063       65.53874       22.71508
C        -15.75982       64.94904       23.90216
N        -17.18242       65.26608       23.80858
H        -10.72146       67.09078       22.79893
H        -11.19662       64.23795       21.91589
H        -13.17019       65.28493       20.70712
H        -12.81563       66.82416       21.52772
H        -13.10403       65.64046       23.76500
H        -13.39430       64.09321       22.87661
H        -15.39596       65.11296       21.77073
H        -15.11443       66.64378       22.69573
H        -15.35224       65.35855       24.85355
H        -15.63037       63.84323       23.91335
H        -17.31895       66.30276       23.83164
H        -17.57896       64.87547       22.92298
H        -17.68059       64.83844       24.62195
N        -10.33415       64.66716       19.41128
C        -10.61632       63.22073       19.44765
C        -12.03001       62.91641       19.91826
O        -12.18026       62.29109       20.95450
C         -9.52540       62.48307       20.26619
C         -8.17441       62.56547       19.60062
O         -8.04994       63.07652       18.35798
O         -7.18067       62.18085       20.19583
H         -9.96370       65.01968       18.51441
H        -10.54536       62.80328       18.41809
H         -9.76984       61.40458       20.37456
H         -9.46185       62.92757       21.28063
N        -13.14471       63.32678       19.25617
C        -13.13646       64.00761       17.97241
C        -14.50659       64.56992       17.62069
O        -15.40583       64.53542       18.44900
H        -14.04722       63.12213       19.70869
H        -12.78134       63.28954       17.20615
H        -12.45110       64.87790       18.00401
N        -14.75364       65.18009       16.42874
C        -13.81775       65.21385       15.31263
C        -13.62124       63.82672       14.70712
O        -12.49875       63.48941       14.35964
C        -14.23115       66.26304       14.24885
C        -15.58927       66.13665       13.59793
O        -15.91944       66.96263       12.76272
O        -16.45935       65.16659       13.92681
H        -15.67324       65.63347       16.31373
H        -12.83179       65.58389       15.67507
H        -13.46130       66.25926       13.44695
H        -14.20319       67.26146       14.73838
N        -14.66594       62.95666       14.59655
C        -14.57535       61.61672       14.03847
C        -14.92238       60.62512       15.11394
O        -15.97189       60.77290       15.72628
H        -15.58846       63.23861       14.95363
H        -13.56674       61.40228       13.62539
H        -15.31062       61.53205       13.21037
N        -14.08434       59.59298       15.42520
C        -14.34942       58.73039       16.57522
C        -14.23323       59.55263       17.84983
O        -13.68037       60.64396       17.79402
C        -13.41445       57.49034       16.61595
C        -11.92165       57.82921       16.73894
O        -13.60038       56.72385       15.45325
H        -13.24479       59.44402       14.84794
H        -15.39251       58.35348       16.48178
H        -13.67095       56.87735       17.51333
H        -14.34838       56.09578       15.63259
H        -11.55794       58.40793       15.86608
H        -11.71932       58.40917       17.66076
H        -11.33234       56.88823       16.78669
N        -14.75347       59.10970       19.03221
C        -14.63282       59.87914       20.26374
C        -13.82824       59.03894       21.24262
O        -14.30267       58.71775       22.32214
C        -16.01810       60.36402       20.82511
C        -16.92288       61.09913       19.79238
C        -15.77638       61.35796       21.98875
C        -17.59867       60.19664       18.75640
H        -15.24253       58.20177       19.06172
H        -14.04746       60.79712       20.07569
H        -16.59186       59.49674       21.21897
H        -16.36258       61.91839       19.29161
H        -17.77219       61.56069       20.34477
H        -15.18237       60.91671       22.80951
H        -15.24074       62.26271       21.62803
H        -16.74144       61.68636       22.43070
H        -16.89128       59.72684       18.05799
H        -18.18617       59.40430       19.26711
H        -18.29601       60.80617       18.14325
N        -12.58326       58.60824       20.88832
C        -11.74623       57.78905       21.76528
C        -11.24486       58.55560       22.99135
O        -10.72913       57.92849       23.90491
C        -10.55593       57.17328       20.98183
C         -9.56859       58.22126       20.44427
O        -11.03903       56.42013       19.89894
H        -12.25100       58.84175       19.94296
H        -12.37617       56.94280       22.12020
H         -9.97674       56.50640       21.66183
H        -11.43976       55.59408       20.27682
H         -8.73865       57.70898       19.91342
H        -10.05031       58.91307       19.72377
H         -9.13333       58.81750       21.27245
N        -11.34101       59.91480       23.05652
C        -10.93069       60.77406       24.16472
C         -9.43101       60.70662       24.45626
O         -8.74363       59.81366       23.98275
C        -11.76451       60.48403       25.44643
C        -13.27623       60.45397       25.18759
O        -11.48683       61.42347       26.45247
H        -11.74662       60.40353       22.25513
H        -11.15379       61.81484       23.83896
H        -11.48500       59.48175       25.83544
H        -11.81325       62.30839       26.13908
H        -13.62755       61.42462       24.77821
H        -13.52843       59.64460       24.47850
H        -13.81399       60.24480       26.13656
N         -8.85932       61.67134       25.23052
C         -7.47427       61.66578       25.69116
C         -6.58880       62.62011       24.90296
O         -5.39218       62.61336       25.15943
C         -7.47806       62.08720       27.18088
C         -8.10174       61.01526       28.09567
C         -8.59800       61.59648       29.43379
C         -9.96591       62.28657       29.25231
N        -10.46826       62.84595       30.50521
H         -9.44687       62.45971       25.53020
H         -7.02267       60.65698       25.56357
H         -8.03633       63.04658       27.23850
H         -6.45482       62.29932       27.56366
H         -7.31293       60.25220       28.27319
H         -8.95925       60.49853       27.61462
H         -7.83809       62.28601       29.86444
H         -8.75340       60.76039       30.14842
H        -10.69481       61.53011       28.88734
H         -9.90781       63.08949       28.49416
H         -9.83267       63.60509       30.83982
H        -11.41859       63.25042       30.33576
H        -10.54720       62.09732       31.23076
N         -7.07034       63.46306       23.94100
C         -6.21013       64.36724       23.18264
C         -5.41482       65.25310       24.12223
O         -6.00911       65.99972       24.88833
C         -7.04549       65.26355       22.22882
C         -6.20253       66.24000       21.37222
C         -5.41389       65.53549       20.30477
O         -4.61001       64.66253       20.58525
O         -5.65128       65.82116       19.01402
H         -8.07229       63.46165       23.73291
H         -5.52174       63.73499       22.58744
H         -7.73419       65.87239       22.85276
H         -7.67314       64.63953       21.55809
H         -5.52971       66.84695       22.01162
H         -6.90395       66.93884       20.86571
N         -4.05332       65.21651       24.10089
C         -3.21839       66.03796       24.95113
H         -2.56792       66.67510       24.31625
H         -3.81207       66.69748       25.61794
H         -2.58004       65.38300       25.57949
H         -3.57585       64.57877       23.44600
Ca        -6.12189       64.03470       17.76957
O         -7.10530       61.68992       15.34316
H         -6.61318       60.90987       14.98244
H         -8.03331       61.36568       15.46108
O         -2.85832       63.60564       17.93611
H         -3.10387       64.53827       18.16010
H         -3.19346       63.07018       18.69864
O         -4.50253       66.61142       16.34445
H         -4.46914       67.22157       17.12353
H         -3.55277       66.45762       16.11165
O         -4.18635       63.04543       14.93366
H         -4.59052       62.70275       14.09714
H         -3.48356       62.38483       15.15773
O         -4.93605       61.04163       17.55469
H         -5.22498       60.86270       18.48455
H         -4.44002       60.22777       17.28676

Ca 1.0



