%chk=apoCaM-CA-Ng.loop3.water2.frame967.chk
%nprocshared=20
%mem=10GB
%nosave
#b3lyp/svp scf=(tight,noincore,xqc) Test 
#IOP(5/87=12) Density=Current Pop=(MK,readradii) iop(6/33=2) iop(6/42=6)

apoCaM-CA-Ng.loop3.water2.frame967 

   0  1 
C         89.40104       24.07838       62.16597
C         90.29541       23.63257       63.28645
O         89.96877       23.85651       64.44347
H         88.50115       24.59980       62.55627
H         89.95209       24.76061       61.48704
H         89.06571       23.18788       61.59026
N         91.43365       22.94151       63.00470
C         92.27942       22.35223       64.03688
C         92.99342       23.42673       64.85448
O         93.78148       24.16813       64.28324
C         93.27879       21.37736       63.37721
C         93.89610       20.39696       64.33172
O         94.64695       19.53731       63.90036
O         93.58175       20.39870       65.64030
H         91.64480       22.75152       62.01198
H         91.61331       21.74608       64.67304
H         94.05816       21.94349       62.82208
H         92.72668       20.75325       62.64297
N         92.73383       23.60045       66.18747
C         93.32512       24.68897       66.96841
C         94.80627       24.49414       67.26763
O         95.44488       25.45698       67.67029
C         92.51938       24.96623       68.25715
C         92.61672       23.87422       69.33886
C         91.69206       24.22827       70.51756
C         91.75370       23.22533       71.68112
N         93.04692       23.25056       72.36774
H         92.01896       23.01084       66.62617
H         93.21835       25.60756       66.34925
H         91.45554       25.10827       67.96477
H         92.87805       25.92072       68.70255
H         93.67112       23.80831       69.67780
H         92.31065       22.88797       68.93136
H         90.64682       24.24543       70.13687
H         91.93268       25.24176       70.90711
H         91.53108       22.19826       71.31739
H         90.96436       23.50626       72.41395
H         93.00551       22.60875       73.19205
H         93.81284       22.92587       71.73718
H         93.25182       24.21784       72.71037
N         95.41616       23.28481       67.11269
C         96.84784       23.06991       67.29036
C         97.44804       22.64704       65.95556
O         98.38123       23.30204       65.51304
C         97.15198       22.16055       68.51008
C         96.45682       20.83477       68.58868
O         95.61701       20.58004       69.60982
O         96.70960       19.95301       67.79477
H         94.84473       22.47469       66.83664
H         97.36047       24.02176       67.55848
H         96.84160       22.72727       69.41501
H         98.24953       21.99529       68.58615
N         96.91280       21.63318       65.21352
C         97.38147       21.28124       63.87408
C         97.89297       19.85981       63.78153
O         98.41717       19.49896       62.73664
H         96.10974       21.11883       65.59064
H         98.21541       21.94684       63.56624
H         96.55749       21.42484       63.14431
N         97.82288       19.01269       64.84333
C         98.47418       17.72014       64.92274
C         97.44322       16.62947       65.17446
O         96.69505       16.71358       66.13980
C         99.49034       17.78409       66.08856
C        100.55392       18.85482       65.91399
N        101.43289       19.10223       66.91110
O        100.62329       19.51079       64.88464
H         97.34482       19.31334       65.69138
H         99.03598       17.49142       63.98993
H         99.99481       16.80221       66.21092
H         98.93486       18.01023       67.02604
H        101.38868       18.57532       67.79482
H        102.14891       19.83704       66.80493
N         97.38926       15.54176       64.35826
C         96.50748       14.40578       64.57137
C         95.04971       14.70351       64.28326
O         94.73680       15.13301       63.18227
H         98.06449       15.47280       63.58163
H         96.65646       14.00177       65.59758
H         96.80434       13.60396       63.86182
N         94.09123       14.39079       65.20227
C         92.64891       14.46902       64.94073
C         92.15381       15.89843       64.74934
O         92.93701       16.83113       64.84450
C         91.87763       13.80312       66.11104
C         92.17765       12.32813       66.23303
C         92.83642       11.82440       67.36656
C         91.77915       11.43850       65.21979
C         93.09718       10.45549       67.48150
C         92.03473       10.06933       65.34003
C         92.69447        9.57272       66.46871
O         92.93260        8.24950       66.57038
H         94.40593       13.99490       66.10185
H         92.42207       13.90799       64.00773
H         90.77906       13.89130       65.98654
H         92.14132       14.33291       67.04856
H         93.15152       12.49029       68.16007
H         91.25970       11.80252       64.34199
H         93.60900       10.08224       68.35939
H         91.71603        9.39332       64.55625
H         93.38288        7.86503       67.33601
N         90.82678       16.11639       64.47786
C         90.16237       17.41141       64.31464
C         90.26667       18.22591       65.59373
O         91.37027       18.60417       65.95370
C         90.69616       18.19188       63.07593
C         89.97535       19.55340       62.86554
C         90.61736       17.33036       61.80268
C         88.46640       19.46987       62.61507
H         90.21497       15.29223       64.38350
H         89.08838       17.19193       64.13157
H         91.77027       18.42558       63.23825
H         90.43933       20.07340       61.99936
H         90.13388       20.19224       63.75747
H         89.57371       17.02419       61.58446
H         91.01932       17.89343       60.93344
H         91.22864       16.41044       61.91563
H         88.06574       20.49541       62.47061
H         88.24178       18.88477       61.70064
H         87.93943       19.02267       63.48179
N         89.16570       18.50872       66.35743
C         89.28509       19.22455       67.62520
C         88.09335       19.00301       68.53122
O         87.02274       19.54466       68.29020
C         89.47051       20.73934       67.42721
O         90.62497       21.01907       66.70401
H         88.25160       18.11782       66.08249
H         90.17109       18.81598       68.15897
H         89.51456       21.26497       68.40963
H         88.60270       21.15950       66.87369
H         91.38533       20.87252       67.32228
N         88.24652       18.21542       69.63016
C         87.25136       18.04970       70.67908
C         87.94295       18.18815       72.04815
O         89.15935       18.32162       72.07151
C         86.61715       16.66526       70.49651
H         89.12735       17.68634       69.72717
H         86.45669       18.82106       70.57690
H         85.83403       16.45317       71.24238
H         86.13504       16.61474       69.49560
H         87.38735       15.86920       70.56043
N         87.29549       18.13371       73.25026
C         85.85615       18.05934       73.43680
C         85.46955       16.67298       73.92322
O         86.33363       15.96027       74.41618
C         85.42958       19.13240       74.44530
H         87.87886       18.14024       74.10327
H         85.35270       18.25502       72.47338
H         85.93671       18.96066       75.42050
H         85.71905       20.13762       74.07245
H         84.33596       19.12148       74.62230
N         84.22890       16.14145       73.72324
C         83.11409       16.82024       73.07456
C         83.02419       16.35600       71.63637
O         83.10587       17.19160       70.74533
C         81.82571       16.57081       73.88039
C         80.60512       17.27390       73.27062
C         79.39218       17.07324       74.13275
O         78.81548       18.03552       74.61396
O         78.93152       15.83124       74.37674
H         84.09312       15.15081       73.98128
H         83.26594       17.91709       73.05426
H         81.98542       16.96133       74.91036
H         81.62693       15.47853       73.94890
H         80.39501       16.86341       72.25978
H         80.81515       18.36196       73.17458
N         82.89687       15.03865       71.32431
C         82.87162       14.58401       69.95102
H         83.81099       14.88465       69.43714
H         82.79026       13.47757       69.91802
H         82.00341       15.02705       69.41898
H         82.84116       14.33617       72.07623
Ca        94.32568       18.70262       66.92795
O         92.71312       19.72359       69.42934
H         91.84384       20.08880       69.73001
H         93.11100       20.44870       68.88542
O         92.65529       16.58478       68.18579
H         93.08744       15.86994       68.71746
H         92.05475       17.04325       68.82467

Ca 1.0



