%chk=apoCaM-CA-Ng.loop2.water4.frame1086.chk
%nprocshared=20
%mem=10GB
%nosave
#b3lyp/svp scf=(tight,noincore,xqc) Test 
#IOP(5/87=12) Density=Current Pop=(MK,readradii) iop(6/33=2) iop(6/42=6)

apoCaM-CA-Ng.loop2.water4.frame1086 

   -2  1 
C         41.30907       68.94890       56.75228
C         40.18916       69.51347       55.91637
O         40.01061       69.04948       54.80000
H         42.04409       69.74530       56.99409
H         40.90013       68.51836       57.69111
H         41.84173       68.14102       56.20661
N         39.36631       70.50974       56.35962
C         39.47098       71.14429       57.67007
C         39.77856       72.62855       57.49866
O         40.59336       72.93923       56.64103
C         38.21796       70.78081       58.50264
C         36.91925       71.23712       57.88593
O         36.09861       70.41612       57.50831
O         36.63526       72.54619       57.77933
H         38.61538       70.83132       55.72968
H         40.33696       70.73738       58.22695
H         38.29510       71.17427       59.53671
H         38.19360       69.67131       58.58239
N         39.22431       73.59572       58.29544
C         39.51413       75.02515       58.19712
C         39.02099       75.66739       56.90735
O         39.25874       76.85755       56.74865
C         41.01461       75.29745       58.41011
H         38.58843       73.32274       59.05508
H         38.97948       75.54155       59.02550
H         41.20445       76.39163       58.44730
H         41.34667       74.85896       59.37431
H         41.63800       74.88267       57.59301
N         38.32083       74.97885       55.95373
C         37.90783       75.58422       54.69120
C         36.36905       75.65629       54.50502
O         35.65249       75.37012       55.66748
C         38.62318       74.86756       53.51852
C         38.48119       73.35783       53.32650
O         39.21218       72.82961       52.50418
O         37.61569       72.55897       53.99538
H         38.09213       73.99155       56.10674
H         38.26222       76.63756       54.65988
H         39.70775       75.04098       53.69453
H         38.36030       75.36608       52.56074
N         35.94423       76.93662       53.92611
C         34.56257       76.91749       53.42388
C         34.27618       75.74742       52.50502
O         33.28574       75.06424       52.71259
H         36.58022       77.18874       53.13540
H         34.39728       77.85890       52.85603
H         33.84557       76.92400       54.27502
N         35.10631       75.46130       51.46473
C         34.87510       74.37068       50.52089
C         34.80612       73.01394       51.20982
O         35.72832       72.64897       51.92220
C         35.98374       74.33103       49.45293
C         36.04675       75.61591       48.66577
N         37.19747       76.32430       48.58517
O         35.04868       76.01507       48.08381
H         35.93667       76.05660       51.33064
H         33.91296       74.56035       49.99523
H         35.76153       73.50434       48.74448
H         36.96607       74.12204       49.93251
H         38.05372       76.00112       49.05839
H         37.23687       77.19454       48.03401
N         33.73445       72.19891       50.99762
C         33.58362       70.88287       51.61338
C         32.27350       70.25460       51.15706
O         31.27144       70.95362       51.21405
H         32.99669       72.53683       50.36075
H         33.55590       71.00281       52.71422
H         34.46099       70.26131       51.35125
N         32.14354       68.98687       50.65869
C         33.13929       67.92251       50.71030
C         33.67296       67.61348       49.32727
O         32.90908       67.23731       48.45168
C         32.48363       66.66062       51.33327
C         33.39850       65.43030       51.32454
O         32.11318       66.93276       52.66167
H         31.22086       68.72890       50.27276
H         33.98636       68.20029       51.36682
H         31.58682       66.37754       50.72822
H         31.13898       67.12247       52.66733
H         34.33003       65.62635       51.89385
H         32.86602       64.56899       51.78197
H         33.66104       65.14069       50.28431
N         35.01176       67.71819       49.09394
C         35.67535       67.33399       47.84854
C         35.58548       65.81212       47.71473
O         36.13793       65.13764       48.57347
C         37.16734       67.81214       47.91230
C         37.20934       69.36636       47.96312
C         38.02037       67.29114       46.74137
C         38.59119       69.93986       48.27232
H         35.59792       68.06256       49.86971
H         35.18630       67.85248       46.99931
H         37.60945       67.39824       48.84729
H         36.53896       69.74754       48.76027
H         36.83877       69.77630       46.99871
H         37.67926       67.73077       45.78443
H         39.08727       67.55548       46.88108
H         37.98553       66.18301       46.68372
H         38.93984       69.56845       49.25979
H         39.33279       69.67804       47.49291
H         38.52265       71.04751       48.31607
N         34.89227       65.16243       46.72929
C         34.10283       65.81640       45.68845
C         34.94673       66.55813       44.66375
O         36.14031       66.32766       44.56523
C         33.16287       64.81270       44.97131
C         33.88076       63.76198       44.15686
O         34.70060       62.87026       44.74507
O         33.69553       63.69562       42.95222
H         34.85683       64.13474       46.79852
H         33.44006       66.54582       46.19144
H         32.48806       65.38190       44.29457
H         32.52070       64.30611       45.72409
N         34.33886       67.46692       43.84963
C         34.98983       68.21633       42.77241
C         33.97107       69.17947       42.16982
O         32.88913       68.71207       41.83896
C         35.53028       67.25048       41.68067
C         36.06991       67.99294       40.47398
C         35.18530       68.47032       39.48769
C         37.44721       68.23249       40.32560
C         35.66385       69.18311       38.38744
C         37.92168       68.95490       39.22335
C         37.03034       69.43165       38.25768
H         33.33405       67.63048       44.01743
H         35.85477       68.78113       43.17206
H         34.74948       66.53533       41.34105
H         36.34525       66.64202       42.12523
H         34.12117       68.29278       39.56898
H         38.15027       67.88019       41.06942
H         34.97112       69.54962       37.64034
H         38.98054       69.15123       39.11880
H         37.39638       69.99368       37.40818
N         34.23117       70.50636       41.91455
C         35.52521       71.18013       42.03698
C         36.01758       71.43520       43.45210
O         35.36428       71.03776       44.40689
C         35.30935       72.51078       41.30059
C         34.25145       72.15114       40.28103
C         33.31357       71.32332       41.14443
H         36.27366       70.58507       41.47231
H         34.81940       73.23440       41.97889
H         36.23402       72.97449       40.89590
H         33.76987       73.02111       39.78721
H         34.70908       71.49836       39.50765
H         32.76190       71.98957       41.84556
H         32.58991       70.75092       40.52534
N         37.19721       72.10085       43.64236
C         37.78436       72.35699       44.95466
C         39.24856       72.81006       44.83344
O         39.59607       73.87226       45.32851
C         36.92066       73.35240       45.79172
C         36.74765       74.77491       45.20457
C         35.88293       74.81618       43.98733
O         34.59458       74.43321       44.07355
O         36.32183       75.24654       42.93244
H         37.72009       72.40372       42.80643
H         37.82490       71.39704       45.51154
H         37.41493       73.45734       46.78218
H         35.91537       72.92423       45.98833
H         37.72433       75.24872       44.99083
H         36.24643       75.41198       45.95437
N         40.20869       72.04722       44.23516
C         39.97580       70.74602       43.64670
H         39.28814       70.81789       42.78256
H         40.93598       70.33437       43.26916
H         39.56664       70.04849       44.40632
H         41.17617       72.40745       44.21685
Ca        35.86046       73.20948       55.21861
O         36.20858       69.97734       53.63649
H         36.11753       68.99387       53.57478
H         36.78738       70.21951       52.87037
O         33.44400       70.30333       55.63123
H         33.32595       69.32532       55.53360
H         32.64442       70.60027       56.13434
O         32.28570       72.84105       54.44690
H         31.57639       72.70179       53.77055
H         33.12407       72.89024       53.92391
O         33.59579       73.16792       57.34006
H         32.61036       73.12519       57.42301
H         33.93233       72.83861       58.21085

Ca 1.0



