%chk=apoCaM-CA-Ng.loop2.water3.frame638.chk
%nprocshared=20
%mem=10GB
%nosave
#b3lyp/svp scf=(tight,noincore,xqc) Test 
#IOP(5/87=12) Density=Current Pop=(MK,readradii) iop(6/33=2) iop(6/42=6)

apoCaM-CA-Ng.loop2.water3.frame638 

   -2  1 
C        -23.23630       28.63093       11.30437
C        -24.49369       29.37473       10.96213
O        -25.54236       28.74969       10.89217
H        -22.35761       29.30843       11.33586
H        -23.34940       28.15035       12.29882
H        -23.05115       27.84568       10.54137
N        -24.46818       30.71761       10.72403
C        -25.66728       31.47408       10.38202
C        -26.64857       31.42997       11.53829
O        -26.34343       31.96558       12.59123
C        -25.29605       32.93529       10.04546
C        -26.49549       33.75676        9.66353
O        -26.82500       34.84372       10.38754
O        -27.17122       33.44833        8.69508
H        -23.56175       31.20908       10.77065
H        -26.11762       31.01399        9.47414
H        -24.57586       32.94650        9.19874
H        -24.79787       33.40295       10.92409
N        -27.85040       30.80048       11.41420
C        -28.81419       30.72470       12.51214
C        -28.23899       29.94087       13.70116
O        -27.26887       29.22254       13.50132
C        -30.09384       30.04376       12.00117
H        -28.08508       30.37083       10.50566
H        -29.05358       31.76498       12.80628
H        -29.86472       29.01130       11.65932
H        -30.88677       29.97931       12.76498
H        -30.50363       30.61739       11.14277
N        -28.75765       29.98286       14.97073
C        -29.84868       30.85272       15.41436
C        -29.46003       32.32458       15.33899
O        -28.31169       32.63803       15.05234
C        -30.33637       30.45453       16.82858
C        -29.28179       30.56396       17.89639
O        -28.72195       31.75346       18.18444
O        -28.95049       29.57401       18.52925
H        -28.32694       29.35627       15.66905
H        -30.71708       30.69699       14.75184
H        -30.69662       29.40196       16.78284
H        -31.20204       31.08419       17.12281
N        -30.40072       33.29073       15.53120
C        -30.11073       34.69803       15.29614
C        -31.36475       35.54699       15.42438
O        -32.37983       35.15343       14.86755
H        -31.36185       33.00367       15.77185
H        -29.75921       34.79614       14.24709
H        -29.29463       35.03543       15.96696
N        -31.41045       36.73873       16.09293
C        -30.25598       37.40882       16.68865
C        -29.24734       37.79352       15.59796
O        -29.53280       37.63166       14.41871
C        -30.75046       38.65892       17.46752
C        -29.68957       39.36943       18.27073
N        -29.03759       38.73489       19.27337
O        -29.42386       40.53569       18.02023
H        -32.32801       37.21054       16.14578
H        -29.78807       36.70831       17.41311
H        -31.53895       38.34569       18.18597
H        -31.21088       39.36986       16.74526
H        -29.25060       37.75437       19.50622
H        -28.31746       39.22782       19.82160
N        -28.02673       38.28895       15.92937
C        -27.01124       38.62762       14.94125
C        -25.76684       39.08685       15.65632
O        -25.30374       40.19626       15.43413
H        -27.79691       38.39218       16.92664
H        -27.38785       39.42373       14.26212
H        -26.76684       37.72471       14.34037
N        -25.20914       38.25862       16.57991
C        -24.13387       38.61713       17.50754
C        -23.51687       37.33935       18.09360
O        -23.90895       36.24933       17.69418
C        -24.69821       39.48662       18.67774
C        -25.30876       40.82943       18.26831
O        -25.65771       38.74292       19.38677
H        -25.65036       37.33167       16.67273
H        -23.32539       39.15988       16.96945
H        -23.84713       39.74540       19.34486
H        -25.61494       39.03459       20.33466
H        -24.57099       41.43236       17.69744
H        -26.23674       40.69231       17.67906
H        -25.59143       41.39825       19.17929
N        -22.57753       37.38311       19.08447
C        -22.13776       36.16890       19.75797
C        -23.03867       35.94696       20.96189
O        -23.00657       36.74974       21.88455
C        -20.62921       36.22502       20.13092
C        -20.21067       34.90999       20.84484
C        -19.78360       36.46965       18.86471
C        -18.75818       34.88837       21.32111
H        -22.27590       38.28882       19.47033
H        -22.25449       35.31106       19.06987
H        -20.46645       37.07756       20.82743
H        -20.38161       34.04636       20.17120
H        -20.84205       34.76518       21.74723
H        -19.90410       35.63222       18.14413
H        -20.08759       37.41384       18.36614
H        -18.70946       36.58116       19.11348
H        -18.56492       33.93468       21.85690
H        -18.04925       34.94080       20.47090
H        -18.56987       35.73234       22.01765
N        -23.88412       34.87299       20.99908
C        -24.77760       34.57054       22.11475
C        -24.43291       33.23718       22.77931
O        -24.94250       32.99991       23.86557
C        -26.24882       34.59308       21.63064
C        -26.47982       33.52369       20.59521
O        -26.34470       32.34613       20.88682
O        -26.69209       33.85461       19.31171
H        -23.91032       34.24802       20.18519
H        -24.65878       35.35247       22.89640
H        -26.44904       35.59202       21.18315
H        -26.95183       34.44877       22.47886
N        -23.61128       32.30680       22.19402
C        -23.18570       31.08594       22.87250
C        -22.48933       30.12411       21.89363
O        -21.27290       30.00538       21.95543
C        -22.26878       31.47846       24.06294
C        -21.65332       30.28753       24.76282
C        -20.25322       30.17280       24.83050
C        -22.45213       29.28327       25.33764
C        -19.66261       29.07343       25.45550
C        -21.85504       28.18087       25.95950
C        -20.46213       28.07653       26.01795
H        -23.25088       32.46730       21.24420
H        -24.05579       30.55207       23.30200
H        -22.84659       32.05927       24.81117
H        -21.46385       32.14291       23.67763
H        -19.61682       30.93341       24.39480
H        -23.53203       29.34624       25.29818
H        -18.58409       28.99499       25.49974
H        -22.47146       27.40512       26.39464
H        -20.00097       27.22357       26.49821
N        -23.18520       29.32832       21.01226
C        -22.55708       28.24732       20.25622
C        -21.48387       28.63947       19.26273
O        -20.85799       27.73787       18.72098
C        -23.71989       27.57319       19.52680
C        -24.84794       27.77335       20.51297
C        -24.63086       29.22827       20.93046
H        -22.11615       27.55415       21.00915
H        -23.97516       28.16531       18.61873
H        -23.52531       26.52197       19.22241
H        -25.86195       27.54654       20.12217
H        -24.64887       27.11467       21.39051
H        -24.98934       29.92429       20.14152
H        -25.17094       29.39908       21.88146
N        -21.21131       29.93831       18.95064
C        -20.11866       30.29075       18.05310
C        -18.81655       29.90150       18.71863
O        -18.06609       29.11670       18.15558
C        -20.08414       31.79361       17.70482
C        -21.25668       32.27262       16.83201
C        -22.56733       32.31551       17.55055
O        -23.65087       31.67994       17.07283
O        -22.67706       32.99851       18.54998
H        -21.77558       30.68490       19.37456
H        -20.23054       29.74274       17.08952
H        -19.16663       31.96799       17.10011
H        -20.00153       32.41609       18.61851
H        -21.33551       31.65059       15.91492
H        -21.03696       33.31683       16.51838
N        -18.50350       30.39678       19.94804
C        -17.29439       30.02404       20.64525
H        -16.40620       30.33493       20.05675
H        -17.26311       30.52351       21.63705
H        -17.27378       28.92439       20.80252
H        -19.15532       31.04434       20.41701
Ca       -25.59495       32.46062       17.92255
O        -24.94513       31.80143       14.79625
H        -24.18580       31.31415       14.38840
H        -25.57496       31.09147       15.07893
O        -26.03630       29.51321       17.38223
H        -25.63289       28.87520       16.74221
H        -26.39155       28.94368       18.10906
O        -26.02412       34.67866       15.54839
H        -25.17001       34.95427       15.13030
H        -25.88912       34.83650       16.51607

Ca 1.0



