%chk=apoCaM-CA-Ng.loop1.water4.frame1024.chk
%nprocshared=20
%mem=10GB
%nosave
#b3lyp/svp scf=(tight,noincore,xqc) Test 
#IOP(5/87=12) Density=Current Pop=(MK,readradii) iop(6/33=2) iop(6/42=6)

apoCaM-CA-Ng.loop1.water4.frame1024 

   0  1 
C         36.07211       37.16032       72.24511
C         35.94097       38.65410       72.29538
O         35.21414       39.22012       71.49092
H         37.13834       36.87568       72.12583
H         35.68511       36.72960       73.19287
H         35.48966       36.73712       71.39902
N         36.62976       39.36115       73.23423
C         36.51173       40.80623       73.39901
C         36.85448       41.54798       72.12307
O         37.96727       41.43951       71.62629
C         37.43113       41.31740       74.52753
C         37.06591       40.81615       75.89929
O         36.10343       40.08538       76.07582
O         37.80424       41.20371       76.95601
H         37.24849       38.83770       73.87289
H         35.46074       41.04347       73.67853
H         37.37391       42.42417       74.56320
H         38.48139       41.03095       74.30119
N         35.91285       42.34848       71.55557
C         36.13639       43.15524       70.36566
C         37.23696       44.19049       70.59611
O         38.18323       44.16129       69.82178
C         34.81037       43.78764       69.87258
C         33.82633       42.68018       69.43194
C         32.47457       43.24144       68.98396
C         31.50928       42.15522       68.47246
N         31.13392       41.19670       69.51544
H         34.98493       42.38984       72.00353
H         36.47214       42.48744       69.53849
H         35.01435       44.44027       68.99474
H         34.35088       44.41352       70.66489
H         33.65105       41.98459       70.27408
H         34.28020       42.11133       68.59088
H         32.64421       43.96537       68.15693
H         32.00145       43.76629       69.83883
H         31.96576       41.61660       67.61266
H         30.58700       42.65941       68.10769
H         30.42541       40.53336       69.12681
H         31.95863       40.63668       69.82610
H         30.71227       41.69759       70.33113
N         37.25959       45.12882       71.59543
C         36.27791       45.30576       72.66481
C         36.92841       45.13929       74.03731
O         38.14495       45.03956       74.12661
C         35.57628       46.67554       72.54408
C         36.52446       47.84688       72.59950
O         36.44297       48.74111       73.60050
O         37.34834       48.01634       71.71628
H         38.07901       45.75426       71.60943
H         35.49450       44.53570       72.59655
H         34.83118       46.76570       73.36177
H         35.01826       46.72248       71.58470
N         36.14539       45.02601       75.15083
C         36.65865       44.73652       76.48295
C         36.01261       45.61994       77.52324
O         35.24145       45.11015       78.32325
H         35.12092       45.03964       75.03347
H         37.76698       44.80525       76.54324
H         36.37713       43.68811       76.71650
N         36.27778       46.95428       77.57599
C         35.65142       47.88130       78.51780
C         34.13997       47.96164       78.28508
O         33.37714       47.71529       79.20947
C         35.99197       47.53502       79.99142
C         37.47103       47.47584       80.24106
O         38.16992       48.45796       80.04979
O         38.02943       46.33908       80.69939
H         36.95279       47.34628       76.90097
H         36.06218       48.89837       78.32862
H         35.54077       46.56290       80.27908
H         35.55713       48.31231       80.65863
N         33.60679       48.33884       77.08707
C         34.41599       48.63138       75.91935
C         33.58033       49.16103       74.78067
O         32.67878       48.47528       74.32036
H         32.58019       48.42749       77.01782
H         34.92716       47.70852       75.58228
H         35.18354       49.38641       76.19065
N         33.84241       50.39918       74.27827
C         33.08058       51.02606       73.20325
C         33.14250       50.20862       71.90939
O         34.09327       49.47212       71.69655
C         33.55760       52.49128       73.03897
C         32.77708       53.28345       71.99188
O         34.92838       52.51784       72.73156
H         34.60672       50.93780       74.71197
H         32.01791       51.05830       73.53261
H         33.38181       52.98670       74.02628
H         35.34266       53.24036       73.27317
H         33.13817       54.33412       71.98134
H         32.92240       52.85397       70.98033
H         31.69538       53.28438       72.24106
N         32.07528       50.23095       71.05585
C         31.87481       49.37219       69.88416
C         32.84113       49.63928       68.73800
O         33.93211       50.14399       68.93529
C         31.78803       47.86420       70.29348
C         30.68450       47.61761       71.35805
C         31.58495       46.91268       69.10036
C         29.25742       47.94900       70.90038
H         31.29263       50.85975       71.29218
H         30.89003       49.66647       69.46436
H         32.75422       47.56722       70.75435
H         30.90468       48.21575       72.26623
H         30.71193       46.54663       71.65634
H         30.66274       47.14904       68.53288
H         32.45669       46.94357       68.41388
H         31.50355       45.87502       69.46246
H         29.14770       49.02594       70.66214
H         28.96463       47.34615       70.01691
H         28.54684       47.71567       71.71949
N         32.44215       49.32730       67.46904
C         33.22727       49.53335       66.25699
C         33.38846       51.00572       65.87140
O         33.95872       51.24431       64.82351
C         32.60973       48.72583       65.07425
C         31.19401       49.16807       64.66391
O         32.58835       47.36376       65.42087
H         31.51791       48.89173       67.36757
H         34.24197       49.10380       66.41324
H         33.28062       48.86798       64.19348
H         32.64991       46.84468       64.57663
H         30.45409       49.01183       65.47427
H         31.18216       50.23693       64.36803
H         30.86029       48.56333       63.79360
N         32.87824       52.02711       66.62645
C         32.96429       53.45450       66.29032
C         34.38087       54.03078       66.50760
O         34.54417       54.87388       67.37731
C         31.90872       54.23838       67.13814
C         30.47143       53.78789       66.83974
O         32.15520       54.06940       68.51483
H         32.34304       51.77972       67.46545
H         32.67164       53.61050       65.22870
H         31.96105       55.31837       66.85544
H         32.42623       54.94879       68.88713
H         30.31280       52.72101       67.10265
H         29.75601       54.39286       67.43676
H         30.23742       53.92687       65.76351
N         35.44706       53.65581       65.73102
C         36.82115       54.13806       65.88678
C         37.43333       53.70196       67.20488
O         36.82626       53.86702       68.24941
C         36.96727       55.64899       65.64984
C         36.60937       56.01422       64.19534
C         37.01730       57.45155       63.83197
C         36.24639       58.55449       64.57368
N         34.83904       58.60088       64.17483
H         35.30112       53.00858       64.95564
H         37.43778       53.65968       65.09148
H         38.04176       55.89621       65.80266
H         36.37413       56.23599       66.37829
H         35.53402       55.82760       63.99248
H         37.19308       55.35035       63.51952
H         36.88273       57.60158       62.73872
H         38.10215       57.56401       64.04999
H         36.71594       59.52882       64.31426
H         36.33273       58.42719       65.67351
H         34.34754       57.71537       64.42843
H         34.37281       59.39440       64.67026
H         34.76784       58.76496       63.14370
N         38.67587       53.14565       67.22095
C         39.26083       52.53204       68.40496
C         38.51047       51.21545       68.72812
O         39.09594       50.50989       69.78361
C         40.79276       52.34614       68.24218
C         41.52541       53.68808       68.40602
C         43.00817       53.52473       68.23899
O         43.83768       53.78310       69.26862
O         43.46995       53.16882       67.16677
H         39.21630       53.12679       66.34259
H         39.12718       53.18877       69.29153
H         41.04080       51.88548       67.26487
H         41.18054       51.68134       69.04404
H         41.32342       54.07295       69.43164
H         41.15747       54.43597       67.67294
N         38.12904       50.32854       67.61175
C         39.20294       49.99001       66.67904
H         40.11063       49.63744       67.21174
H         38.85366       49.18644       65.99631
H         39.43216       50.85789       66.03062
H         37.75485       49.44116       68.02323
Ca        37.65093       50.85477       71.51285
O         38.15785       53.79608       72.00425
H         37.51025       54.33202       71.48129
H         39.03676       54.00394       71.59898
O         35.34033       52.09738       70.08443
H         36.06144       52.72275       70.33911
H         35.13021       52.31685       69.14371
O         37.26234       51.68065       74.86754
H         36.76649       51.50859       75.70681
H         38.04631       52.21498       75.14989
O         39.87301       50.85608       73.44880
H         39.78961       50.08145       74.05986
H         40.63087       50.62715       72.85467

Ca 1.0



