%chk=apoCaM-CA-Ng.loop1.water4.frame1017.chk
%nprocshared=20
%mem=10GB
%nosave
#b3lyp/svp scf=(tight,noincore,xqc) Test 
#IOP(5/87=12) Density=Current Pop=(MK,readradii) iop(6/33=2) iop(6/42=6)

apoCaM-CA-Ng.loop1.water4.frame1017 

   0  1 
C         52.64303       24.54543       69.58837
C         52.19566       25.95061       69.87315
O         52.49120       26.83751       69.08537
H         53.75173       24.51051       69.54379
H         52.30434       23.84237       70.37927
H         52.22561       24.20919       68.61710
N         51.47882       26.22785       70.99771
C         51.02704       27.56921       71.35936
C         52.24243       28.48087       71.49766
O         53.11427       28.18554       72.30441
C         50.18111       27.45970       72.64855
C         49.57918       28.74683       73.11230
O         49.80894       29.16520       74.36977
O         48.84065       29.38880       72.38240
H         51.25052       25.44219       71.62775
H         50.36349       27.94810       70.55018
H         50.79791       27.02930       73.46805
H         49.33960       26.75957       72.45011
N         52.40735       29.55797       70.66646
C         53.67314       30.28420       70.56727
C         54.14488       31.03987       71.81437
O         55.35120       31.23018       71.87598
C         53.75801       31.20247       69.31870
C         53.69704       30.41971       67.99541
C         53.87388       31.36717       66.79586
C         54.02477       30.63303       65.45254
N         52.83876       29.85528       65.09383
H         51.65937       29.77537       69.99040
H         54.44968       29.50077       70.40679
H         54.74019       31.72475       69.33676
H         52.97244       31.98038       69.33080
H         52.73142       29.87970       67.91175
H         54.52555       29.67820       67.99033
H         54.80398       31.95884       66.94258
H         53.01966       32.07540       66.74534
H         54.91347       29.96429       65.48980
H         54.20661       31.39555       64.66247
H         51.99688       30.47450       65.06271
H         52.98606       29.43746       64.14639
H         52.68909       29.07550       65.77248
N         53.38859       31.50856       72.85493
C         51.93270       31.53901       72.98145
C         51.51167       31.85303       74.42823
O         52.37104       31.99989       75.29170
C         51.34209       32.53123       71.95573
C         51.86798       33.91539       72.18523
O         51.56739       34.50259       73.34715
O         52.54226       34.49528       71.34892
H         53.93799       31.93965       73.61545
H         51.52116       30.54031       72.79508
H         50.23407       32.55211       72.02087
H         51.58274       32.19904       70.93593
N         50.19897       31.92919       74.78437
C         49.76859       31.98181       76.17484
C         49.31895       33.34379       76.65558
O         48.89599       33.41369       77.79871
H         49.46848       31.82518       74.06219
H         50.57673       31.63174       76.85333
H         48.93335       31.25783       76.30026
N         49.36416       34.46315       75.86949
C         48.87594       35.77594       76.29782
C         47.40102       35.66656       76.67682
O         47.06412       35.92935       77.82408
C         49.72507       36.36068       77.46688
C         51.15781       36.60815       77.08855
O         52.05330       36.00162       77.65443
O         51.46434       37.49381       76.11992
H         49.71372       34.38362       74.90831
H         48.96036       36.48994       75.45116
H         49.68804       35.67934       78.34291
H         49.29801       37.33655       77.78295
N         46.43654       35.25229       75.80560
C         46.63544       34.93297       74.40364
C         46.93692       36.16718       73.59094
O         46.15694       37.10716       73.62902
H         45.47613       35.14679       76.16725
H         45.68379       34.52374       74.00126
H         47.39697       34.13546       74.27873
N         48.01503       36.19443       72.76268
C         48.29490       37.29386       71.84176
C         49.29889       36.79294       70.82173
O         50.41000       36.45520       71.19829
C         48.75401       38.56793       72.59622
C         49.07685       39.72972       71.65168
O         49.88377       38.28280       73.37784
H         48.60622       35.34871       72.72251
H         47.35647       37.53359       71.29453
H         47.90945       38.89596       73.24741
H         49.73717       38.68753       74.27292
H         48.19358       39.98035       71.02762
H         49.35489       40.62724       72.24522
H         49.93125       39.47478       70.98906
N         48.91727       36.63044       69.51735
C         49.70007       35.94901       68.48491
C         50.99883       36.68901       68.18212
O         51.40749       37.53834       68.96114
C         49.93481       34.45156       68.90251
C         48.63183       33.72776       69.34436
C         50.67786       33.61232       67.85125
C         47.59916       33.51306       68.23847
H         47.97102       36.93537       69.24281
H         49.08999       35.97375       67.55461
H         50.57934       34.45559       69.79712
H         48.15062       34.29104       70.17187
H         48.90122       32.73093       69.75764
H         50.79700       32.56877       68.21283
H         50.13209       33.59915       66.88561
H         51.69976       34.00097       67.68885
H         46.71574       32.99338       68.66696
H         47.26464       34.47946       67.81144
H         48.01042       32.86937       67.43435
N         51.68398       36.44257       67.02793
C         52.97566       37.05077       66.72416
C         52.82367       38.06531       65.60371
O         53.54024       38.01761       64.61341
C         54.03776       35.94229       66.47368
C         53.72453       35.02024       65.27744
O         54.15272       35.16261       67.63709
H         51.26297       35.81157       66.33127
H         53.33273       37.64297       67.59528
H         55.00483       36.45241       66.28289
H         54.99673       34.64500       67.56065
H         52.78592       34.45128       65.43182
H         53.64486       35.58781       64.32981
H         54.54368       34.28042       65.15406
N         51.87357       39.03626       65.71758
C         51.63502       40.04701       64.69556
C         52.78145       41.04260       64.67100
O         53.00608       41.71635       65.66739
C         50.28670       40.75652       64.96446
C         49.95627       41.79963       63.89343
O         49.26801       39.78742       64.98002
H         51.26215       39.02183       66.54847
H         51.53726       39.53364       63.71217
H         50.34752       41.26475       65.95729
H         48.58344       40.08934       65.63217
H         49.91403       41.32439       62.89000
H         48.97049       42.26050       64.11315
H         50.71657       42.60665       63.88526
N         53.55462       41.17534       63.55546
C         54.67849       42.09973       63.43222
C         55.70383       41.83371       64.52340
O         56.11233       42.75251       65.22153
C         54.19362       43.57204       63.39550
C         53.26146       43.82619       62.19897
C         52.80010       45.28831       62.13282
C         51.90245       45.51765       60.90702
N         51.47475       46.91338       60.81658
H         53.35882       40.56656       62.74644
H         55.18344       41.89363       62.46209
H         55.07698       44.24108       63.29573
H         53.66866       43.83006       64.34076
H         52.36904       43.16972       62.27145
H         53.80696       43.57790       61.26242
H         53.68955       45.95179       62.06065
H         52.23677       45.54454       63.05720
H         51.00519       44.86243       60.97354
H         52.46347       45.25036       59.98372
H         52.30773       47.54047       60.73311
H         50.87779       47.03275       59.96610
H         50.91687       47.17562       61.66128
N         56.12389       40.55708       64.74984
C         57.05639       40.20093       65.81266
C         57.00400       38.70089       66.09391
O         56.69058       38.36153       67.22644
C         58.50012       40.69187       65.52360
C         59.43453       40.43608       66.71938
C         60.84565       40.84821       66.41336
O         61.10507       42.00712       66.13165
O         61.83640       39.93642       66.45961
H         55.68547       39.80707       64.19519
H         56.71284       40.71181       66.74241
H         58.49185       41.78291       65.31597
H         58.92203       40.18990       64.63261
H         59.43743       39.35427       66.97207
H         59.07204       41.00282       67.60428
N         57.27765       37.71854       65.18180
C         57.61689       37.89827       63.78418
H         58.61483       37.45416       63.59021
H         56.86440       37.37024       63.16143
H         57.63185       38.94911       63.45451
H         57.22540       36.73988       65.50385
Ca        51.96765       36.52405       74.17638
O         52.30551       40.08016       73.99569
H         51.76215       40.66906       73.41420
H         53.06631       40.64614       74.28027
O         54.93927       37.91097       73.89041
H         55.77279       37.62630       73.43830
H         54.88669       38.88469       73.71971
O         53.52668       38.45517       71.24193
H         52.58872       38.13969       71.25076
H         53.93980       37.99428       70.46902
O         54.32332       35.02398       75.28101
H         53.45608       34.72672       75.65462
H         54.59106       34.29289       74.66995

Ca 1.0



