%chk=apoCaM-CA-Ng.loop4.water4.frame735.chk
%nprocshared=20
%mem=10GB
%nosave
#b3lyp/svp scf=(tight,noincore,xqc) Test 
#IOP(5/87=12) Density=Current Pop=(MK,readradii) iop(6/33=2) iop(6/42=6)

apoCaM-CA-Ng.loop4.water4.frame735 

   -3  1 
C        119.10278       11.51943      -11.65374
C        120.58836       11.37195      -11.78821
O        121.03430       10.51856      -12.54144
H        118.57398       10.77926      -12.29259
H        118.80328       11.36028      -10.59795
H        118.80221       12.54060      -11.97018
N        121.42306       12.20445      -11.09952
C        122.88113       12.16683      -11.19521
C        123.28455       12.34045      -12.64165
O        123.95835       11.48521      -13.20348
C        123.44488       10.86926      -10.57949
C        123.05068       10.74625       -9.13968
O        123.42897       11.68059       -8.24665
O        122.38204        9.79696       -8.77297
H        121.00378       12.93311      -10.50165
H        123.29685       13.02389      -10.61958
H        124.55452       10.87516      -10.63892
H        123.07638        9.98330      -11.14190
N        122.81280       13.41181      -13.33496
C        122.98583       13.52297      -14.77586
C        124.45484       13.70543      -15.15235
O        125.19244       14.25500      -14.34568
C        122.10433       14.65108      -15.39494
C        122.51640       16.05932      -14.88292
C        120.61208       14.35380      -15.14040
C        121.75007       17.20315      -15.54646
H        122.22892       14.09417      -12.83113
H        122.61593       12.55432      -15.16588
H        122.25691       14.62589      -16.49630
H        123.59124       16.22583      -15.10565
H        122.37738       16.13615      -13.78435
H        120.35936       14.40253      -14.06136
H        119.96200       15.06697      -15.68475
H        120.35906       13.33953      -15.51008
H        122.13963       18.17176      -15.16770
H        121.88733       17.17060      -16.64779
H        120.66945       17.15997      -15.30331
N        124.98664       13.29310      -16.34390
C        124.26619       12.55229      -17.37916
C        124.80465       11.13749      -17.54929
O        124.13472       10.34890      -18.19701
C        124.26199       13.32455      -18.71722
C        125.61285       13.52519      -19.36476
O        126.74383       13.03951      -18.81754
O        125.68064       14.13437      -20.41984
H        125.98486       13.49675      -16.50081
H        123.20670       12.43567      -17.10965
H        123.80628       14.32298      -18.54124
H        123.61853       12.77898      -19.44211
N        125.99700       10.73902      -17.01321
C        126.57730        9.42258      -17.21651
C        126.84995        9.15751      -18.68200
O        127.49160        9.97221      -19.33037
H        126.55704       11.39411      -16.45282
H        125.91633        8.64285      -16.77947
H        127.54968        9.38148      -16.67970
N        126.41504        8.00279      -19.25940
C        126.64630        7.65699      -20.66240
C        125.79339        8.46002      -21.64928
O        125.89141        8.18737      -22.83833
C        126.46842        6.12868      -20.88797
C        125.13694        5.52154      -20.51969
O        124.95585        4.32999      -20.71030
O        124.16038        6.24384      -19.94539
H        125.96271        7.31017      -18.64532
H        127.71411        7.85230      -20.90853
H        127.23991        5.59849      -20.28943
H        126.67057        5.90461      -21.95876
N        124.95306        9.46557      -21.26406
C        124.09019       10.16604      -22.20246
C        122.97565        9.27136      -22.70916
O        122.36211        9.60795      -23.71091
H        124.91378        9.75468      -20.28780
H        124.71066       10.54569      -23.04331
H        123.61404       11.04405      -21.71298
N        122.62503        8.13866      -22.02784
C        121.59565        7.19144      -22.43704
C        120.19378        7.77718      -22.42158
O        119.28012        7.09587      -22.86717
C        121.98258        6.48902      -23.75886
C        123.25321        5.64084      -23.54156
C        123.64861        4.79169      -24.72054
N        124.69971        3.94632      -24.60596
O        123.02339        4.84301      -25.76954
H        123.10767        7.92636      -21.15162
H        121.54027        6.38015      -21.67643
H        122.12264        7.21761      -24.58548
H        121.16469        5.79209      -24.04380
H        123.06398        4.94423      -22.69614
H        124.10725        6.29627      -23.27389
H        125.22764        3.88269      -23.72216
H        124.97955        3.34348      -25.39341
N        119.92102        8.96377      -21.80250
C        118.56830        9.47944      -21.62307
C        118.17865        9.52191      -20.14482
O        117.06387        9.93988      -19.86657
C        118.41522       10.87611      -22.29062
C        119.30566       11.95377      -21.64816
C        118.69067       10.79304      -23.79892
H        120.68906        9.50319      -21.38090
H        117.82727        8.80766      -22.11072
H        117.35732       11.19953      -22.16672
H        120.38310       11.71899      -21.76863
H        119.11161       12.93726      -22.12647
H        119.07647       12.05492      -20.56690
H        118.01257       10.05153      -24.27278
H        118.51110       11.77956      -24.27685
H        119.74113       10.49238      -23.99578
N        119.02061        9.10106      -19.14609
C        118.67045        9.16923      -17.72758
C        118.59939        7.78216      -17.10676
O        118.87232        6.79459      -17.77241
C        119.67596       10.07378      -16.99027
C        119.63531       11.48248      -17.52877
N        118.50889       12.22840      -17.42778
O        120.63082       11.95795      -18.05354
H        119.95014        8.72393      -19.37570
H        117.65319        9.59722      -17.60219
H        120.69813        9.65005      -17.10736
H        119.44572       10.11916      -15.90462
H        117.66253       11.85163      -16.97646
H        118.48317       13.19159      -17.79350
N        118.11875        7.65182      -15.83478
C        117.75233        6.35879      -15.25108
C        116.68985        6.51752      -14.16283
O        116.31149        7.63637      -13.84912
C        118.97188        5.51402      -14.79393
C        119.74095        5.91880      -13.54709
C        119.63059        7.17141      -12.91112
C        120.59950        4.95330      -12.98641
C        120.36197        7.43643      -11.74373
C        121.31381        5.21714      -11.81724
C        121.19836        6.45638      -11.19109
O        121.89194        6.68817      -10.05936
H        117.84595        8.51973      -15.35405
H        117.23778        5.77840      -16.04879
H        119.68786        5.37326      -15.63135
H        118.56185        4.50570      -14.57535
H        118.99312        7.94786      -13.30453
H        120.69974        3.97720      -13.44523
H        120.27530        8.40007      -11.26126
H        121.95355        4.45292      -11.39277
H        121.82905        7.52400       -9.58075
N        116.13788        5.42122      -13.56040
C        115.07828        5.52362      -12.56483
C        115.63734        5.07711      -11.22133
O        115.97816        3.91001      -11.09523
C        113.86964        4.67867      -13.01389
C        112.66092        4.84505      -12.08436
C        111.49968        4.01418      -12.54463
O        110.98593        3.06894      -11.73465
O        111.00581        4.19929      -13.64564
H        116.47708        4.48113      -13.80747
H        114.71921        6.56634      -12.50979
H        114.16199        3.60631      -13.06571
H        113.57418        5.00673      -14.03528
H        112.34932        5.91220      -12.06899
H        112.93692        4.53252      -11.05526
N        115.84049        5.93647      -10.17636
C        115.55231        7.36908      -10.22169
C        114.06086        7.62557      -10.11367
O        113.31857        6.72905       -9.73781
C        116.30899        8.11206       -9.10322
C        117.82904        8.01360       -9.32089
C        118.58846        8.66183       -8.20477
O        118.49428        8.22862       -7.06750
O        119.39733        9.70792       -8.45512
H        116.29053        5.55139       -9.33043
H        115.92966        7.78395      -11.18087
H        116.02347        7.67929       -8.11884
H        116.03253        9.18985       -9.10619
H        118.07964        8.51401      -10.28127
H        118.15618        6.95447       -9.38445
N        113.55328        8.84241      -10.45573
C        112.13952        9.16112      -10.40974
H        111.52527        8.32011      -10.02402
H        111.98119       10.04105       -9.75279
H        111.78522        9.40806      -11.43295
H        114.19431        9.57553      -10.79476
Ca       120.56225       10.66233       -6.76927
O        121.88497       11.37038       -4.12816
H        122.68689       11.94977       -4.15952
H        121.12109       12.00061       -4.12215
O        120.80531        8.35994       -4.36474
H        120.76292        8.86430       -3.51374
H        120.21624        7.57784       -4.21837
O        123.44745        8.76545       -6.25251
H        124.17972        8.86679       -5.59457
H        123.89476        8.42914       -7.06949
O        118.16069       10.61843       -5.17745
H        117.65021       11.46353       -5.10852
H        117.72956       10.00685       -4.52985

Ca 1.0



