%chk=apoCaM-CA-Ng.loop1.water4.frame509.chk
%nprocshared=20
%mem=10GB
%nosave
#b3lyp/svp scf=(tight,noincore,xqc) Test 
#IOP(5/87=12) Density=Current Pop=(MK,readradii) iop(6/33=2) iop(6/42=6)

apoCaM-CA-Ng.loop1.water4.frame509 

   0  1 
C         67.20500       85.71160       34.37296
C         66.56158       87.04389       34.13105
O         66.22447       87.33853       32.99414
H         68.22319       85.86251       34.78955
H         66.59649       85.12548       35.09213
H         67.29212       85.13869       33.42453
N         66.38129       87.91073       35.17066
C         65.80585       89.24902       35.05951
C         64.33035       89.20536       34.68394
O         63.96601       88.56675       33.70883
C         66.63218       90.14090       34.10950
C         66.17535       91.57515       34.15703
O         65.80838       92.13913       33.13908
O         66.18857       92.25118       35.32260
H         66.70295       87.61452       36.10541
H         65.88811       89.72034       36.06517
H         66.57883       89.76888       33.06561
H         67.69426       90.11838       34.43554
N         63.43159       89.92292       35.42180
C         61.98643       90.01075       35.20607
C         61.23000       88.77433       35.66017
O         60.00859       88.85587       35.70909
C         61.58534       90.29602       33.73378
C         62.32878       91.45135       33.05421
C         61.91729       91.52570       31.57082
C         62.75604       92.51187       30.74418
N         62.55881       93.90054       31.15483
H         63.80240       90.50987       36.18483
H         61.62856       90.84720       35.84843
H         60.49066       90.49123       33.68477
H         61.77156       89.37621       33.13906
H         63.41477       91.24564       33.09584
H         62.11825       92.40494       33.58190
H         60.83660       91.77303       31.48314
H         62.07763       90.52357       31.11410
H         62.45577       92.40967       29.67717
H         63.83302       92.24198       30.81993
H         63.12779       94.51724       30.53067
H         61.55081       94.16148       31.05743
H         62.87560       94.04396       32.13935
N         61.83694       87.57977       35.93358
C         61.03695       86.39125       36.17860
C         60.52043       86.40425       37.62664
O         61.36548       86.43954       38.51050
C         61.84356       85.09619       35.89336
C         60.90754       83.92040       35.77675
O         59.70403       84.10089       35.79107
O         61.33423       82.65620       35.65774
H         62.85468       87.47534       35.83776
H         60.25190       86.40446       35.40027
H         62.59124       84.93270       36.70026
H         62.38359       85.17595       34.92577
N         59.20200       86.41191       38.00315
C         58.05327       86.35727       37.11771
C         57.04759       85.30940       37.55126
O         55.89899       85.68091       37.74913
H         58.99628       86.49659       39.01171
H         58.32212       86.15987       36.07160
H         57.55249       87.35028       37.13678
N         57.37898       83.98973       37.71777
C         56.37438       82.97372       38.03234
C         56.94487       81.58161       38.47948
O         58.25900       81.26899       38.08887
C         55.31926       82.80153       36.90876
C         55.83117       82.36975       35.56386
O         57.14014       82.19717       35.33223
O         55.03897       82.19516       34.65229
H         58.36266       83.70904       37.64699
H         55.78382       83.35545       38.89618
H         54.77579       83.75623       36.75566
H         54.57003       82.05624       37.25467
N         56.85700       81.47301       39.94871
C         57.30112       80.16675       40.45859
C         58.79193       80.07440       40.73029
O         59.20191       79.01836       41.19197
H         55.83914       81.54266       40.18614
H         56.98654       79.35128       39.76761
H         56.79949       79.98309       41.43468
N         59.66875       81.09459       40.46901
C         61.10552       80.97811       40.71088
C         61.86971       80.82574       39.41446
O         61.35438       81.16827       38.36058
C         61.64924       82.19221       41.50955
C         61.56970       83.51855       40.72841
O         60.94051       82.33430       42.71200
H         59.32225       81.96873       40.05525
H         61.30360       80.05582       41.29932
H         62.73186       82.02899       41.72608
H         61.32876       81.68433       43.35315
H         62.00634       84.33970       41.33416
H         62.14742       83.45943       39.78087
H         60.52333       83.79502       40.48664
N         63.11967       80.28490       39.43069
C         63.95460       80.14851       38.24217
C         64.03465       78.70782       37.75247
O         64.64296       78.49585       36.71419
C         65.35797       80.78688       38.47619
C         66.14595       80.07946       39.61525
C         65.19771       82.29610       38.73957
C         67.57894       80.58858       39.78181
H         63.47759       79.93154       40.33008
H         63.48552       80.69092       37.39065
H         65.93751       80.67420       37.53286
H         66.20832       78.99323       39.38951
H         65.63154       80.20319       40.59042
H         64.63978       82.77066       37.90400
H         64.64410       82.47778       39.68515
H         66.18130       82.80275       38.79770
H         67.59793       81.65410       40.08764
H         68.08431       80.00564       40.58107
H         68.14709       80.46211       38.83669
N         63.39757       77.68177       38.39530
C         63.33305       76.32386       37.85427
C         64.02234       75.32665       38.76573
O         64.51057       75.69177       39.82437
C         61.85783       75.93062       37.56301
C         60.94755       75.95793       38.79798
O         61.34160       76.79823       36.58729
H         62.90702       77.86481       39.27948
H         63.87739       76.26496       36.88688
H         61.84813       74.88954       37.16637
H         60.76828       76.26026       35.98013
H         60.85315       76.98422       39.20883
H         59.92974       75.61632       38.51393
H         61.33473       75.28024       39.58719
N         64.11253       74.02544       38.36554
C         64.79047       72.97837       39.11180
C         65.90012       72.41024       38.23898
O         67.05247       72.45709       38.64892
C         63.75910       71.91552       39.57625
C         64.39992       70.83905       40.45431
O         63.12230       71.29439       38.48917
H         63.68889       73.76174       37.46626
H         65.24811       73.39688       40.03618
H         62.99802       72.42415       40.21603
H         62.34095       71.85624       38.24536
H         64.87326       71.30208       41.34639
H         63.62003       70.12843       40.80299
H         65.16756       70.27123       39.88778
N         65.62488       71.88554       37.00846
C         66.62932       71.34609       36.10340
C         66.59410       72.12237       34.79852
O         65.52428       72.24786       34.21493
C         66.33041       69.85748       35.84573
C         67.47919       69.17657       35.07766
C         67.19775       67.71298       34.70518
C         66.88708       66.81428       35.91233
N         66.73502       65.42098       35.49475
H         64.64836       71.86369       36.67982
H         67.64228       71.40937       36.55951
H         65.37145       69.75458       35.29076
H         66.22291       69.35441       36.82999
H         68.40150       69.22649       35.69804
H         67.67262       69.72110       34.12921
H         68.10226       67.32310       34.18819
H         66.34609       67.67181       33.99217
H         65.94147       67.14692       36.39279
H         67.70923       66.88476       36.65812
H         65.97700       65.33782       34.77869
H         67.63569       65.06747       35.09741
H         66.48102       64.83974       36.32585
N         67.73371       72.63441       34.25490
C         67.74110       73.31305       32.96226
C         67.36683       74.78382       33.10432
O         66.36723       75.16093       32.50936
C         69.05949       73.09199       32.18548
C         69.27887       71.60068       31.87820
C         70.52278       71.39132       31.06527
O         71.72305       71.74702       31.56138
O         70.45397       70.88561       29.95621
H         68.62919       72.43467       34.72495
H         66.96891       72.84118       32.30966
H         69.93599       73.48893       32.73198
H         68.98859       73.63613       31.21703
H         68.40253       71.21110       31.31281
H         69.37235       71.02230       32.82087
N         68.06235       75.70681       33.83591
C         69.24736       75.46808       34.63378
H         70.08071       76.09190       34.24795
H         69.04130       75.75990       35.68452
H         69.57540       74.42071       34.64386
H         67.71355       76.67829       33.83506
Ca        59.53324       81.41242       36.20069
O         61.85211       79.49349       34.73278
H         61.99822       79.17956       35.65968
H         62.75942       79.52946       34.33830
O         58.58105       79.11385       34.20408
H         57.60233       79.21189       34.09060
H         58.92399       78.95335       33.28932
O         59.64373       81.93773       33.15088
H         59.33533       82.87599       33.08085
H         60.15164       81.77813       32.31641
O         58.87287       78.57661       37.18174
H         59.81460       78.77332       37.41618
H         58.67311       77.72212       37.63852

Ca 1.0



