%chk=apoCaM-CA-Ng.loop1.water6.frame570.chk
%nprocshared=20
%mem=10GB
%nosave
#b3lyp/svp scf=(tight,noincore,xqc) Test 
#IOP(5/87=12) Density=Current Pop=(MK,readradii) iop(6/33=2) iop(6/42=6)

apoCaM-CA-Ng.loop1.water6.frame570 

   0  1 
C         73.96844       36.26699      -18.71544
C         73.04611       37.40712      -19.02919
O         73.41548       38.55442      -18.82493
H         74.93270       36.63716      -18.30781
H         73.49380       35.60031      -17.96465
H         74.16836       35.68604      -19.64042
N         71.80974       37.14864      -19.53253
C         70.83189       38.17846      -19.86850
C         69.60445       38.03886      -18.98065
O         69.59306       37.18014      -18.10779
C         70.51717       38.10796      -21.38116
C         69.97829       36.77574      -21.82866
O         68.81203       36.31138      -21.34246
O         70.59288       36.11487      -22.65095
H         71.54163       36.16237      -19.67974
H         71.24003       39.19440      -19.67493
H         71.46043       38.31886      -21.93251
H         69.79430       38.89906      -21.66756
N         68.52573       38.85757      -19.15106
C         67.32946       38.77962      -18.31520
C         66.21264       38.09031      -19.06374
O         66.34649       37.85811      -20.25765
C         66.89332       40.19250      -17.84447
C         66.35778       41.06125      -19.00623
C         65.93892       42.46471      -18.56301
C         65.35395       43.23382      -19.76020
N         64.98759       44.59902      -19.39080
H         68.53815       39.52251      -19.93456
H         67.54612       38.15810      -17.41877
H         67.75455       40.69210      -17.35011
H         66.08119       40.09181      -17.09159
H         65.46901       40.56083      -19.44918
H         67.12855       41.17315      -19.79451
H         66.82764       43.00248      -18.16704
H         65.17097       42.39616      -17.76179
H         64.45056       42.70042      -20.13421
H         66.10090       43.27047      -20.58472
H         64.57521       45.07663      -20.22504
H         64.27987       44.58824      -18.62132
H         65.83821       45.12588      -19.08676
N         65.06522       37.74563      -18.41318
C         63.93647       37.11095      -19.08291
C         62.80591       36.92698      -18.07523
O         63.01543       36.18967      -17.12285
C         64.34607       35.71993      -19.64873
C         63.34245       35.14033      -20.59987
O         62.36858       35.78261      -20.95391
O         63.56077       33.92020      -21.12433
H         64.99176       37.96917      -17.40771
H         63.63590       37.78029      -19.91628
H         64.52109       35.01370      -18.80765
H         65.28774       35.76832      -20.22446
N         61.60198       37.56137      -18.14433
C         61.21491       38.50920      -19.17057
C         59.89692       39.14893      -18.79592
O         59.83976       39.79787      -17.76008
H         60.92737       37.37153      -17.38905
H         61.15201       37.99079      -20.15036
H         61.96950       39.32229      -19.23885
N         58.79556       39.01937      -19.58590
C         57.52130       39.64962      -19.25016
C         56.95013       39.13651      -17.92732
O         56.63633       37.96223      -17.81128
C         56.47738       39.51959      -20.39075
C         56.10420       38.11348      -20.78618
O         56.91961       37.38130      -21.32208
O         54.84118       37.67928      -20.61536
H         58.88948       38.49118      -20.46436
H         57.70650       40.74246      -19.15198
H         56.85408       40.04027      -21.29738
H         55.55593       40.04985      -20.06257
N         56.73188       40.00878      -16.90118
C         56.03126       39.67068      -15.67035
C         56.76624       38.79379      -14.67469
O         56.17938       38.55245      -13.62819
H         56.97076       41.00200      -17.03984
H         55.05493       39.20311      -15.92685
H         55.81228       40.61840      -15.13265
N         58.00851       38.26785      -14.88601
C         58.65302       37.41201      -13.88731
C         59.76952       36.61182      -14.52487
O         60.75346       37.18610      -14.96826
C         59.15912       38.23331      -12.67377
C         59.74852       37.32453      -11.58442
O         60.12597       39.15963      -13.10025
H         58.47491       38.42276      -15.79120
H         57.88986       36.68512      -13.52832
H         58.29392       38.77918      -12.23588
H         60.24063       39.81885      -12.36702
H         60.07650       37.93607      -10.71761
H         58.98294       36.60040      -11.23363
H         60.62773       36.76269      -11.96355
N         59.63954       35.26182      -14.63601
C         60.58893       34.40665      -15.33046
C         59.97254       33.98927      -16.65006
O         60.65124       34.06441      -17.66186
C         60.97772       33.16320      -14.48521
C         61.37522       33.51323      -13.02934
C         62.10122       32.36968      -15.18814
C         62.56006       34.47020      -12.88612
H         58.78347       34.82526      -14.26434
H         61.52338       34.96391      -15.54674
H         60.08894       32.49748      -14.40698
H         61.61344       32.57069      -12.48905
H         60.49995       33.96948      -12.51927
H         62.36843       31.46650      -14.60111
H         61.78129       32.03308      -16.19656
H         63.01194       32.99303      -15.31645
H         62.74457       34.65395      -11.80667
H         63.48210       34.03912      -13.32441
H         62.34192       35.44487      -13.36696
N         58.66175       33.60602      -16.71693
C         57.99172       33.24001      -17.95589
C         57.27278       31.91660      -17.78585
O         57.26413       31.36705      -16.69351
C         57.05818       34.38343      -18.41498
C         55.90729       34.68759      -17.45108
O         57.83659       35.54040      -18.56914
H         58.08720       33.61465      -15.86496
H         58.74395       33.09998      -18.76144
H         56.61771       34.08818      -19.39736
H         57.46383       36.04127      -19.33562
H         55.26089       33.79595      -17.31852
H         56.29140       35.02016      -16.46441
H         55.28453       35.50661      -17.87192
N         56.69007       31.31986      -18.86088
C         56.09815       29.99256      -18.80150
C         57.01375       29.05854      -19.55824
O         57.56372       28.15253      -18.94523
C         54.63323       30.01215      -19.31902
C         54.02920       28.60250      -19.37812
O         54.55745       30.60238      -20.59120
H         56.74819       31.78751      -19.77743
H         56.06084       29.62248      -17.75193
H         54.04711       30.62925      -18.59743
H         53.62385       30.92003      -20.70999
H         52.96984       28.65772      -19.70711
H         54.58109       27.97235      -20.10900
H         54.06775       28.11774      -18.38065
N         57.22653       29.21810      -20.89092
C         58.08397       28.34842      -21.67422
C         59.02618       29.18799      -22.50476
O         58.56013       30.07455      -23.20879
C         57.19560       27.46402      -22.54963
C         58.01352       26.40864      -23.30182
C         57.07725       25.42896      -24.00663
C         57.86206       24.32076      -24.71220
N         56.94781       23.36008      -25.32646
H         56.71883       29.96022      -21.39341
H         58.66312       27.66310      -21.01493
H         56.59763       28.07850      -23.25832
H         56.49302       26.93442      -21.86740
H         58.63329       25.84131      -22.57162
H         58.68911       26.89815      -24.03739
H         56.45114       25.97601      -24.74471
H         56.41187       24.96287      -23.24631
H         58.50328       23.79049      -23.97242
H         58.51845       24.76575      -25.49266
H         56.34685       23.83942      -26.03555
H         57.50285       22.61022      -25.79717
H         56.34402       22.92310      -24.59187
N         60.36471       28.93919      -22.50795
C         61.30547       29.74226      -23.27773
C         61.50246       31.13315      -22.60826
O         60.47605       31.97223      -23.05106
C         62.61629       28.95945      -23.54179
C         63.59626       29.68488      -24.48381
C         63.00840       29.95281      -25.84474
O         62.61174       29.02942      -26.53775
O         62.92752       31.21246      -26.31182
H         60.72155       28.13180      -21.97348
H         60.88750       29.88922      -24.29894
H         62.34653       27.98857      -24.01527
H         63.15094       28.71593      -22.60909
H         64.49245       29.04191      -24.62136
H         63.92512       30.63784      -24.01823
N         61.44671       31.08729      -21.13345
C         62.61804       30.47958      -20.50599
H         63.55692       30.95886      -20.85746
H         62.54450       30.60735      -19.40423
H         62.63042       29.38805      -20.67112
H         61.39775       32.07351      -20.78559
Ca        61.26624       34.10380      -22.98707
O         63.77923       33.76090      -24.63697
H         64.45485       33.24025      -24.13576
H         62.98990       33.16599      -24.67516
O         59.62469       36.92677      -23.74559
H         58.98793       37.42140      -24.31936
H         59.08863       36.66167      -22.95849
O         60.25889       34.32176      -25.74570
H         60.79916       33.66393      -26.25120
H         59.99379       34.99931      -26.41666
O         58.22330       33.71594      -23.34060
H         57.83421       33.28139      -24.14064
H         57.53846       34.36728      -23.04761
O         59.70567       34.74109      -20.60457
H         59.25199       35.55285      -20.93794
H         60.27591       35.07707      -19.87118
O         62.47728       36.59730      -24.65286
H         62.47460       37.58611      -24.60486
H         63.19288       36.38215      -25.30208

Ca 1.0



