%chk=apoCaM-CA-Ng.loop3.water6.frame363.chk
%nprocshared=20
%mem=10GB
%nosave
#b3lyp/svp scf=(tight,noincore,xqc) Test 
#IOP(5/87=12) Density=Current Pop=(MK,readradii) iop(6/33=2) iop(6/42=6)

apoCaM-CA-Ng.loop3.water6.frame363 

   0  1 
C         56.32634       92.78101       67.21280
C         57.36667       92.91714       68.28673
O         57.89691       91.91053       68.72647
H         55.36561       93.21174       67.56608
H         56.65520       93.32279       66.30142
H         56.16234       91.71290       66.95233
N         57.70542       94.15554       68.75287
C         58.71014       94.45937       69.77985
C         58.30750       94.04291       71.20451
O         59.00261       94.42343       72.13472
C         60.08342       93.85223       69.38203
C         61.27935       94.36752       70.14417
O         61.18341       95.27404       70.95559
O         62.49066       93.83638       69.89428
H         57.24129       94.96491       68.31114
H         58.80038       95.56916       69.78818
H         60.27941       94.06224       68.30910
H         60.04205       92.75050       69.51763
N         57.23277       93.24604       71.46129
C         56.88061       92.75370       72.79424
C         57.17138       91.25546       72.92919
O         56.97569       90.71471       74.00868
C         55.39738       93.07228       73.11143
C         54.42375       92.54869       72.03667
C         52.95834       92.73278       72.43325
C         52.04339       92.30513       71.27475
N         50.63462       92.40615       71.64811
H         56.67442       92.90329       70.67636
H         57.50571       93.24503       73.57188
H         55.26567       94.17378       73.19049
H         55.14601       92.62994       74.10037
H         54.60607       91.46765       71.85243
H         54.58797       93.11209       71.09415
H         52.76033       93.79993       72.67502
H         52.74812       92.11356       73.33234
H         52.26757       91.25480       70.98321
H         52.23782       92.95925       70.39419
H         50.43037       91.75415       72.43985
H         50.40274       93.38725       71.92566
H         50.04541       92.13632       70.82732
N         57.65025       90.52457       71.88288
C         57.95425       89.09949       71.93702
C         59.14671       88.82288       72.83947
O         60.10738       89.57918       72.81757
C         58.24471       88.60620       70.50687
C         58.46841       87.12294       70.42697
O         59.50553       86.68561       69.96308
O         57.52757       86.25980       70.84618
H         57.79325       90.99086       70.98170
H         57.05596       88.54548       72.28912
H         59.12716       89.15170       70.10774
H         57.36837       88.84543       69.86593
N         59.16511       87.71036       73.62646
C         60.27341       87.35016       74.49919
C         61.58223       87.00937       73.79618
O         62.54353       86.76517       74.51098
H         58.33779       87.09913       73.62868
H         59.98418       86.45995       75.09962
H         60.45229       88.19099       75.20326
N         61.71915       86.97624       72.43510
C         62.99673       86.72491       71.76388
C         63.46552       87.93870       70.96852
O         64.59751       87.90500       70.50400
C         62.89927       85.53259       70.77972
C         62.47811       84.23282       71.41437
N         63.28591       83.14596       71.36620
O         61.38293       84.14845       71.94817
H         60.89958       87.15231       71.84986
H         63.78526       86.50535       72.51627
H         63.89306       85.39206       70.29962
H         62.17207       85.77431       69.97361
H         64.20899       83.18825       70.90904
H         62.98533       82.25146       71.78090
N         62.65297       89.00559       70.69967
C         63.04723       90.10054       69.82583
C         62.35839       90.01674       68.47028
O         62.69569       90.80521       67.60082
H         61.68634       89.01816       71.04217
H         64.13798       90.06233       69.62652
H         62.83758       91.07075       70.32582
N         61.39935       89.07945       68.21250
C         60.77340       88.85001       66.91441
C         60.83255       87.36457       66.60406
O         60.59359       86.56717       67.49811
C         59.30327       89.30270       66.96248
C         58.56706       88.99863       65.67503
C         58.98337       89.55424       64.45179
C         57.45840       88.13540       65.69143
C         58.30654       89.24267       63.26777
C         56.78361       87.82678       64.50805
C         57.20730       88.37735       63.29074
O         56.57135       88.07799       62.14034
H         61.07687       88.47714       68.97834
H         61.27466       89.43325       66.11231
H         59.26725       90.39533       67.15237
H         58.79833       88.78856       67.80362
H         59.83570       90.22008       64.41010
H         57.11847       87.69371       66.61999
H         58.64201       89.66727       62.32990
H         55.93468       87.15574       64.53909
H         55.81407       87.47563       62.11378
N         61.06887       86.90857       65.34202
C         61.07400       85.47565       65.04532
C         62.21175       84.78868       65.79272
O         62.08350       83.60648       66.07752
C         61.05748       85.21154       63.50603
C         59.70450       85.72407       62.93208
C         61.24508       83.71815       63.16753
C         59.59643       85.68375       61.40819
H         61.21170       87.59250       64.58428
H         60.12785       85.04698       65.44730
H         61.90178       85.77134       63.04682
H         59.55603       86.77925       63.22664
H         58.86619       85.13294       63.36552
H         60.43465       83.10409       63.61416
H         61.26380       83.55531       62.07194
H         62.22186       83.34948       63.53573
H         60.39481       86.30594       60.95329
H         59.65679       84.64958       61.01605
H         58.60999       86.09572       61.10448
N         63.31370       85.47586       66.21941
C         64.33866       84.87137       67.06648
C         65.10205       83.72933       66.40281
O         65.86337       83.07726       67.10339
C         65.30867       85.94572       67.57919
O         65.99517       86.53327       66.50804
H         63.39673       86.47756       65.99039
H         63.81990       84.45059       67.95727
H         66.03579       85.49493       68.28985
H         64.70922       86.71535       68.11783
H         66.38793       87.37398       66.86013
N         64.92557       83.39225       65.08842
C         65.51729       82.21384       64.46087
C         65.08374       80.96897       65.22401
O         65.91633       80.18576       65.66118
C         67.04186       82.35962       64.33981
H         64.29657       83.95379       64.50031
H         65.11360       82.13789       63.42631
H         67.52796       82.42861       65.33447
H         67.46669       81.48750       63.79911
H         67.28493       83.27846       63.76425
N         63.75898       80.78841       65.48483
C         63.23542       79.77029       66.38498
C         61.87704       79.30670       65.90519
O         61.02704       80.14801       65.64576
C         63.08963       80.37392       67.78305
H         63.10922       81.51927       65.16138
H         63.93771       78.91157       66.47640
H         64.08229       80.70740       68.15412
H         62.40242       81.24615       67.77235
H         62.69439       79.60832       68.48555
N         61.59121       77.97832       65.78942
C         60.31138       77.46033       65.31470
C         60.11174       77.87787       63.87084
O         59.12959       78.53119       63.54271
C         59.12636       77.88055       66.22665
C         59.29176       77.39598       67.67326
C         58.10245       77.78474       68.50722
O         56.98712       77.38123       68.21677
O         58.26275       78.57086       69.58834
H         62.31735       77.29064       66.04190
H         60.35525       76.34816       65.32630
H         58.19523       77.43541       65.81078
H         58.99503       78.98285       66.22885
H         60.20818       77.84358       68.11523
H         59.39168       76.28971       67.68999
N         61.04225       77.52678       62.94289
C         60.92857       77.90835       61.55374
H         60.91183       79.01567       61.46728
H         61.79970       77.52016       60.98455
H         59.99867       77.48531       61.11873
H         61.86412       76.97513       63.23372
Ca        58.04544       84.06464       70.71083
O         59.56812       81.91572       72.85019
H         59.34536       82.33037       73.72075
H         60.50887       81.62393       72.95066
O         57.90368       84.59072       73.57075
H         57.96985       84.46172       74.54929
H         57.03788       85.05230       73.43622
O         55.82553       82.58735       71.94487
H         56.09810       81.63665       71.90344
H         55.87167       82.81788       72.90627
O         58.93382       83.86499       67.91673
H         59.61629       83.56294       67.26765
H         58.76777       84.81373       67.69045
O         55.88228       83.71171       68.60920
H         55.96718       84.67150       68.38066
H         55.25392       83.69384       69.37408
O         59.76602       81.54755       69.73480
H         58.84382       81.19571       69.81247
H         60.00390       81.41005       68.78380

Ca 1.0



