%chk=apoCaM-CA-Ng.loop3.water3.frame502.chk
%nprocshared=20
%mem=10GB
%nosave
#b3lyp/svp scf=(tight,noincore,xqc) Test 
#IOP(5/87=12) Density=Current Pop=(MK,readradii) iop(6/33=2) iop(6/42=6)

apoCaM-CA-Ng.loop3.water3.frame502 

   0  1 
C         67.38504       40.06623       68.73454
C         67.56276       39.79815       70.19868
O         66.74602       40.23639       70.99624
H         68.26896       40.61662       68.34896
H         67.29238       39.10251       68.19044
H         66.47370       40.67271       68.54916
N         68.62606       39.06194       70.62104
C         68.87324       38.73909       72.02266
C         69.12650       40.02938       72.78310
O         70.11165       40.69420       72.48825
C         70.08029       37.77167       72.08611
C         70.33840       37.08426       73.39251
O         71.20626       36.22758       73.44288
O         69.58339       37.30261       74.47864
H         69.27252       38.70174       69.90056
H         67.97321       38.21182       72.41323
H         71.00257       38.28804       71.74402
H         69.86674       36.94917       71.37143
N         68.23420       40.50200       73.70583
C         68.40567       41.81711       74.32293
C         69.60030       41.83727       75.27217
O         70.11119       42.91081       75.55444
C         67.12410       42.26243       75.06510
C         67.09931       43.78093       75.34795
C         65.94773       44.22029       76.26508
C         64.54665       43.86624       75.74663
N         63.52347       44.34015       76.67938
H         67.37795       39.95920       73.89609
H         68.57186       42.53050       73.48325
H         67.02779       41.67406       76.00402
H         66.24620       42.04218       74.42045
H         67.04320       44.32561       74.37850
H         68.02753       44.09798       75.86114
H         66.01509       45.32423       76.38908
H         66.09257       43.75123       77.26189
H         64.44901       42.76396       75.64642
H         64.38332       44.33068       74.74920
H         63.66694       43.90559       77.62052
H         63.56765       45.38169       76.76467
H         62.57899       44.06755       76.32407
N         70.08209       40.68133       75.81936
C         71.22516       40.62809       76.72543
C         72.40209       39.88292       76.09932
O         73.45735       39.84229       76.71834
C         70.78441       40.05151       78.09044
C         70.16631       38.68034       78.01327
O         70.81522       37.72627       77.62395
O         68.88962       38.49646       78.40026
H         69.62100       39.78925       75.59161
H         71.60390       41.65432       76.92491
H         70.02726       40.74313       78.52133
H         71.64915       40.02439       78.78805
N         72.32389       39.33182       74.85096
C         73.45437       38.76921       74.13099
C         74.07545       37.51938       74.72025
O         75.05018       37.06766       74.13662
H         71.44525       39.38744       74.32498
H         74.23939       39.55271       74.05306
H         73.12991       38.51904       73.09783
N         73.62055       36.91666       75.85881
C         74.31205       35.79171       76.48200
C         73.39291       34.60562       76.72786
O         72.19057       34.77573       76.86559
C         74.88556       36.27902       77.82932
C         75.72503       35.24188       78.53187
N         76.86472       34.77850       77.96787
O         75.37491       34.82116       79.62433
H         72.80579       37.30336       76.34416
H         75.15280       35.45632       75.83783
H         74.03774       36.58240       78.48507
H         75.52074       37.17467       77.65911
H         77.18074       35.12924       77.05211
H         77.43587       34.06909       78.44995
N         73.94211       33.36883       76.89487
C         73.21594       32.19645       77.34705
C         72.07147       31.82179       76.44722
O         72.28577       31.62824       75.25827
H         74.95579       33.25466       76.74509
H         72.85290       32.37090       78.38208
H         73.92296       31.33852       77.38178
N         70.82325       31.63986       76.97123
C         69.70155       31.21318       76.15281
C         69.32198       32.36395       75.17776
O         68.68973       33.34910       75.95550
C         68.44405       30.80917       76.98686
C         68.59350       29.66339       77.96406
C         68.08961       28.39153       77.63645
C         69.14227       29.86609       79.24417
C         68.14307       27.34505       78.56216
C         69.18723       28.81967       80.17095
C         68.68528       27.55552       79.83314
O         68.70468       26.54305       80.72363
H         70.69248       31.76822       77.98145
H         70.02344       30.30919       75.58691
H         67.66369       30.51942       76.24990
H         68.02272       31.66747       77.55091
H         67.64557       28.20941       76.66574
H         69.50341       30.83710       79.54983
H         67.74709       26.37306       78.29592
H         69.59704       28.99773       81.15747
H         69.04684       26.65386       81.62228
N         68.39660       31.86542       74.13910
C         68.28371       32.67063       72.90172
C         67.47181       33.92594       73.15241
O         67.99649       34.84548       73.75278
C         69.66346       33.01890       72.22941
C         69.43727       33.82138       70.91308
C         70.49666       31.75184       71.95641
C         70.72216       34.33144       70.25366
H         68.68086       30.89994       73.85161
H         67.70531       32.04777       72.18209
H         70.24325       33.65981       72.93006
H         68.82971       34.72436       71.13051
H         68.87412       33.20131       70.18238
H         71.48951       32.00914       71.53587
H         70.70547       31.20041       72.89431
H         69.96756       31.08028       71.24794
H         70.45772       34.94539       69.36610
H         71.29513       34.96727       70.96050
H         71.36474       33.50065       69.90270
N         66.19904       34.06292       72.67832
C         65.46888       35.32404       72.78640
C         64.27961       35.26880       73.72771
O         63.76615       36.33497       74.03693
C         65.05535       35.79902       71.38586
O         64.22217       34.85851       70.75924
H         65.75100       33.26588       72.20097
H         66.13289       36.10649       73.21402
H         65.96560       35.92549       70.76115
H         64.55855       36.79489       71.42883
H         63.29792       35.03308       71.07546
N         63.77281       34.10493       74.22895
C         62.67331       34.10347       75.18968
C         63.22289       34.40423       76.57511
O         64.04088       33.62017       77.03608
C         61.97112       32.74067       75.20325
H         64.15591       33.20309       73.90968
H         61.90870       34.83222       74.86331
H         61.56753       32.51554       74.19292
H         62.67315       31.92974       75.49349
H         61.12328       32.75784       75.92185
N         62.87777       35.49111       77.32695
C         61.94230       36.53963       76.93867
C         60.51880       35.99997       76.85504
O         60.08937       35.40765       77.83572
C         61.95602       37.66664       77.98212
H         63.34729       35.58654       78.24231
H         62.31447       37.00316       76.01623
H         61.26938       38.48328       77.66847
H         61.63665       37.29454       78.97954
H         62.97900       38.09052       78.07204
N         59.67264       36.18361       75.79533
C         59.95830       36.90240       74.55792
C         59.68926       35.98992       73.37677
O         60.60294       35.74898       72.59959
C         59.13180       38.20255       74.52890
C         59.50755       39.10729       73.34499
C         58.82627       40.44212       73.45097
O         59.56251       41.56533       73.56201
O         57.60824       40.51821       73.44066
H         58.71461       35.81516       75.90422
H         61.00928       37.21849       74.49835
H         59.36811       38.76066       75.46317
H         58.04162       37.98367       74.52493
H         59.23278       38.62276       72.38424
H         60.60671       39.27865       73.35276
N         58.46329       35.41824       73.20034
C         58.16081       34.48895       72.13027
H         57.31855       34.88241       71.52495
H         59.02830       34.31432       71.45988
H         57.86188       33.51353       72.56992
H         57.70472       35.62675       73.86573
Ca        69.48544       35.48459       75.79799
O         69.84079       35.07050       78.98336
H         70.20991       34.20268       79.28469
H         69.08102       35.24422       79.59406
O         66.89859       37.38671       75.97419
H         66.63691       38.01016       76.69721
H         66.69881       37.87609       75.13764
O         66.93590       34.82877       77.76745
H         66.36583       34.88000       76.95994
H         66.94348       33.86776       78.00505

Ca 1.0



