%chk=apoCaM-CA-Ng.loop2.water5.frame481.chk
%nprocshared=20
%mem=10GB
%nosave
#b3lyp/svp scf=(tight,noincore,xqc) Test 
#IOP(5/87=12) Density=Current Pop=(MK,readradii) iop(6/33=2) iop(6/42=6)

apoCaM-CA-Ng.loop2.water5.frame481 

   -2  1 
C         55.58649       71.92196       79.01580
C         57.07612       72.06991       78.89954
O         57.76924       71.84761       79.88207
H         55.07777       72.16417       78.05868
H         55.33732       70.87558       79.29117
H         55.20463       72.60636       79.80089
N         57.64666       72.42567       77.71394
C         59.09100       72.55440       77.53872
C         59.64268       73.72244       78.35514
O         58.87223       74.53306       78.85097
C         59.39294       72.74774       76.03043
C         60.85513       72.73186       75.68794
O         61.59683       71.63726       75.94450
O         61.37350       73.70235       75.15910
H         57.02944       72.56812       76.89890
H         59.55493       71.60234       77.88030
H         58.93518       73.70417       75.69003
H         58.91899       71.92007       75.45950
N         60.98734       73.87359       78.51898
C         61.59083       75.02876       79.17214
C         61.14015       75.17917       80.61173
O         61.38281       74.28658       81.41346
C         63.12170       74.91721       79.13284
H         61.61195       73.15154       78.13184
H         61.31035       75.93787       78.59625
H         63.58684       75.81217       79.59895
H         63.46371       74.01104       79.67943
H         63.47230       74.84727       78.08109
N         60.50313       76.31925       81.01481
C         60.14859       76.58158       82.40953
C         61.40728       76.70878       83.25914
O         62.50704       76.63155       82.72640
C         59.31717       77.88049       82.53061
C         57.99625       77.82725       81.81380
O         57.59957       76.72887       81.14486
O         57.26061       78.80044       81.84682
H         60.28362       77.03597       80.30591
H         59.53635       75.73534       82.79537
H         59.90892       78.73339       82.13320
H         59.08514       78.08360       83.59668
N         61.31432       76.88778       84.60686
C         62.47557       76.94097       85.48136
C         62.50546       75.77706       86.44905
O         63.46678       75.67665       87.19711
H         60.38160       76.95879       85.04094
H         62.46561       77.89784       86.04655
H         63.41863       76.90478       84.89705
N         61.48584       74.87141       86.51350
C         61.45279       73.74758       87.43491
C         61.10552       72.46765       86.69402
O         60.87725       72.48303       85.49194
C         60.36973       74.03719       88.49826
C         60.75272       75.22295       89.34501
N         60.00773       76.35141       89.33899
O         61.75145       75.16111       90.04696
H         60.64989       74.99239       85.92656
H         62.43112       73.60428       87.94511
H         60.22868       73.17947       89.18767
H         59.39886       74.21454       87.98360
H         59.16796       76.42836       88.74755
H         60.27973       77.15661       89.92201
N         60.97924       71.31893       87.40573
C         60.44426       70.07881       86.88153
C         59.12803       69.81243       87.57737
O         58.59630       70.71259       88.21646
H         61.19024       71.33427       88.41484
H         61.17263       69.27304       87.11485
H         60.28033       70.09730       85.78197
N         58.56241       68.57643       87.55305
C         57.36830       68.28259       88.34619
C         56.08250       68.81863       87.71136
O         55.04860       68.73203       88.36064
C         57.27403       66.77362       88.69834
C         57.01218       65.85104       87.50174
O         58.42279       66.36356       89.40157
H         59.06917       67.82131       87.06914
H         57.49072       68.78773       89.33192
H         56.41341       66.64037       89.38989
H         59.16729       66.25825       88.75373
H         56.95985       64.79845       87.85021
H         56.03849       66.09846       87.04896
H         57.80890       65.93190       86.73439
N         56.05702       69.36113       86.45515
C         54.84347       69.87331       85.80974
C         55.01038       71.32045       85.37997
O         56.09648       71.86913       85.52073
C         54.38029       68.97530       84.61555
C         55.26610       68.94869       83.33265
C         54.05794       67.55750       85.10019
C         56.67207       68.34608       83.43465
H         56.93570       69.40873       85.93627
H         54.00817       69.86781       86.54460
H         53.40585       69.38590       84.27430
H         55.35368       69.97227       82.90985
H         54.71674       68.33525       82.58475
H         53.60037       66.96184       84.28264
H         54.97234       67.04526       85.43487
H         53.33494       67.59370       85.94391
H         56.65527       67.33557       83.89169
H         57.09571       68.25043       82.41328
H         57.37087       69.00597       83.97297
N         53.95367       72.00415       84.84451
C         54.03414       73.38845       84.39841
C         53.04957       74.22899       85.20915
O         52.24820       74.96703       84.65192
C         53.77272       73.40710       82.87761
C         54.00081       74.73216       82.21216
O         53.81043       74.82890       81.01211
O         54.43400       75.80350       82.90476
H         53.04361       71.52875       84.74572
H         55.05546       73.78623       84.58570
H         52.72936       73.07260       82.68342
H         54.46243       72.68060       82.39316
N         53.04580       74.10423       86.56659
C         52.16106       74.81938       87.48620
C         50.69429       74.72074       87.08030
O         50.24296       73.63016       86.75972
C         52.38181       74.26379       88.91747
C         51.46232       74.85705       89.96059
C         51.92609       75.84572       90.84334
C         50.12973       74.41399       90.06801
C         51.06659       76.39325       91.80156
C         49.27823       74.95634       91.03247
C         49.74487       75.94846       91.89653
H         53.70875       73.42671       86.97426
H         52.46277       75.88610       87.48720
H         53.44001       74.47956       89.18359
H         52.26171       73.15801       88.94137
H         52.94572       76.20356       90.77937
H         49.74989       73.64093       89.41239
H         51.42544       77.16332       92.47118
H         48.25679       74.60587       91.10933
H         49.08257       76.37013       92.64109
N         49.86383       75.81503       87.13808
C         48.44564       75.79808       86.81383
C         48.16397       75.36602       85.39871
O         47.24823       74.58352       85.18692
C         48.01302       77.26498       86.97431
C         48.91919       77.73259       88.08062
C         50.24756       77.12100       87.64953
H         47.90852       75.16189       87.55385
H         48.29993       77.85969       86.07601
H         46.92429       77.40487       87.14856
H         48.94402       78.83085       88.24365
H         48.58557       77.23680       89.02189
H         50.72942       77.69985       86.83107
H         50.89733       77.08899       88.54506
N         48.89277       75.88816       84.36906
C         48.54956       75.67619       82.96973
C         48.52409       74.20220       82.58487
O         47.87119       73.87001       81.60562
C         49.49264       76.50445       82.06540
C         48.94523       76.69430       80.64587
C         49.81822       77.62078       79.84854
O         50.28625       77.25687       78.78329
O         50.05868       78.87233       80.28702
H         49.67690       76.51929       84.59731
H         47.51746       76.07944       82.86361
H         50.51018       76.05014       82.05285
H         49.57904       77.52169       82.50806
H         47.93865       77.15951       80.71268
H         48.85574       75.71748       80.12666
N         49.17794       73.25986       83.32568
C         49.09620       71.83718       83.06401
H         48.41280       71.59787       82.22240
H         50.10571       71.44077       82.83147
H         48.71057       71.32703       83.97263
H         49.76234       73.54944       84.12194
Ca        55.61086       76.83151       80.09517
O         53.14020       76.23086       78.42561
H         52.87411       77.18185       78.35797
H         52.43795       75.81323       78.98470
O         54.53831       79.42529       78.73106
H         53.70468       79.85567       79.04770
H         54.47639       79.45896       77.74349
O         56.03956       75.07296       77.83921
H         56.75741       75.75346       77.80560
H         55.86833       74.84844       76.89137
O         53.50866       78.32353       81.57620
H         52.55034       78.18723       81.37042
H         53.52435       79.07437       82.22081
O         57.76176       78.26166       78.53869
H         57.84579       78.33253       77.55525
H         57.67782       79.19684       78.85265

Ca 1.0



