%chk=apoCaM-CA-Ng.loop2.water4.frame698.chk
%nprocshared=20
%mem=10GB
%nosave
#b3lyp/svp scf=(tight,noincore,xqc) Test 
#IOP(5/87=12) Density=Current Pop=(MK,readradii) iop(6/33=2) iop(6/42=6)

apoCaM-CA-Ng.loop2.water4.frame698 

   -2  1 
C         78.09724      104.13682      -12.91932
C         78.22381      105.62418      -12.77181
O         77.35434      106.34707      -13.23809
H         77.17862      103.87323      -13.48660
H         78.97588      103.74614      -13.47627
H         78.05584      103.65864      -11.91956
N         79.32159      106.15777      -12.16672
C         79.54273      107.59589      -12.08240
C         78.57231      108.22765      -11.09904
O         78.66487      107.94436       -9.91209
C         81.00368      107.88069      -11.67068
C         81.38348      109.33782      -11.73041
O         80.49878      110.27932      -12.11457
O         82.52250      109.67015      -11.44576
H         80.05272      105.51240      -11.82795
H         79.40420      108.01439      -13.10452
H         81.67608      107.33533      -12.36832
H         81.18637      107.49355      -10.64362
N         77.59733      109.07664      -11.53418
C         76.63618      109.72227      -10.64313
C         75.28488      109.01169      -10.75592
O         75.19248      108.10543      -11.57361
C         76.59418      111.21633      -10.99405
H         77.49800      109.23491      -12.54892
H         76.98270      109.61497       -9.60040
H         76.21328      111.35760      -12.02827
H         75.97684      111.80934      -10.30334
H         77.61759      111.64270      -10.93186
N         74.18707      109.26956       -9.97654
C         74.04195      110.31246       -8.96017
C         75.08447      110.25045       -7.85033
O         75.65512      109.19975       -7.59210
C         72.60448      110.31598       -8.38067
C         72.18456      108.99322       -7.78988
O         71.22999      108.39212       -8.25814
O         72.84503      108.46830       -6.74382
H         73.36459      108.67064      -10.15338
H         74.14429      111.29062       -9.46062
H         71.90229      110.56119       -9.20864
H         72.50316      111.10922       -7.60954
N         75.37414      111.38746       -7.15009
C         76.35950      111.46696       -6.08113
C         77.79156      111.31000       -6.56343
O         78.00683      111.15630       -7.75673
H         74.85253      112.24849       -7.37325
H         76.12887      110.69485       -5.31891
H         76.28283      112.46938       -5.60843
N         78.85351      111.31439       -5.70112
C         78.74479      111.47811       -4.25228
C         78.97960      110.16514       -3.52051
O         78.97535      110.18920       -2.29695
C         79.73024      112.56509       -3.73673
C         81.18343      112.12400       -3.71751
N         81.85831      112.03397       -2.54367
O         81.75370      111.84288       -4.75998
H         79.78974      111.14475       -6.09941
H         77.72901      111.82411       -3.97836
H         79.43794      112.81335       -2.69240
H         79.62358      113.49800       -4.33114
H         81.40346      112.26392       -1.64742
H         82.84205      111.72546       -2.52405
N         79.23046      108.99251       -4.18259
C         79.70896      107.80688       -3.49303
C         78.63382      106.85361       -3.01161
O         78.75581      105.66836       -3.28641
H         79.28808      108.98878       -5.21076
H         80.32891      108.11603       -2.62492
H         80.40256      107.25921       -4.16898
N         77.61190      107.27020       -2.20978
C         76.71529      106.35024       -1.49741
C         75.94315      105.40150       -2.40934
O         76.04399      105.50204       -3.62281
C         75.78712      107.12807       -0.52685
C         76.59789      107.83457        0.56859
O         75.01991      108.07848       -1.22041
H         77.52321      108.27723       -2.03135
H         77.35583      105.68707       -0.87518
H         75.12221      106.41972        0.01770
H         74.16377      107.64161       -1.46720
H         77.19277      107.08869        1.13895
H         77.29391      108.59155        0.15291
H         75.91375      108.34936        1.27423
N         75.20619      104.38634       -1.85985
C         74.65521      103.27795       -2.63256
C         73.13638      103.30492       -2.62953
O         72.50927      103.31399       -1.58051
C         75.17963      101.91257       -2.08958
C         74.60691      100.73080       -2.92979
C         76.72123      101.89454       -2.10166
C         74.96991       99.34481       -2.39707
H         75.10089      104.33957       -0.83594
H         75.00717      103.34886       -3.68194
H         74.83506      101.80008       -1.03761
H         74.95110      100.81048       -3.98129
H         73.49744      100.77459       -2.93059
H         77.10495      101.98924       -3.14061
H         77.13054      102.72795       -1.49399
H         77.11514      100.96065       -1.65457
H         74.60765       99.22938       -1.35380
H         74.48039       98.57258       -3.02874
H         76.06196       99.16326       -2.43614
N         72.50107      103.22285       -3.82591
C         71.07116      103.15673       -4.05492
C         70.70584      101.78826       -4.62403
O         69.72491      101.22116       -4.16339
C         70.70588      104.27692       -5.04518
C         70.94513      105.62865       -4.43041
O         72.02912      106.35829       -4.76232
O         70.18842      106.04426       -3.56707
H         73.08287      103.18680       -4.66500
H         70.48941      103.30508       -3.11690
H         69.64073      104.21752       -5.35944
H         71.32877      104.16675       -5.95927
N         71.43161      101.19888       -5.62683
C         71.07044       99.92294       -6.24674
C         71.96938       99.64531       -7.47386
O         72.61327       98.60782       -7.51823
C         71.18766       98.76320       -5.20766
C         70.69491       97.39511       -5.65857
C         69.86693       97.19968       -6.78598
C         71.07559       96.27053       -4.90267
C         69.43810       95.91589       -7.13787
C         70.65594       94.98751       -5.26895
C         69.83548       94.81083       -6.38399
H         72.25968      101.68931       -5.98372
H         70.02220      100.01720       -6.59764
H         70.64843       98.99010       -4.26659
H         72.26558       98.68616       -4.94046
H         69.53117       98.02429       -7.39563
H         71.71187       96.38577       -4.03365
H         68.79510       95.77806       -7.99781
H         70.96614       94.12902       -4.68697
H         69.50595       93.81812       -6.66331
N         72.06744      100.53135       -8.51836
C         72.89744      100.33900       -9.70902
C         74.32060       99.88680       -9.43857
O         74.80570       99.01047      -10.14130
C         72.91664      101.73601      -10.33891
C         71.51804      102.21870      -10.04082
C         71.35513      101.79289       -8.58912
H         72.38974       99.61863      -10.38943
H         73.61429      102.39793       -9.77302
H         73.20768      101.74916      -11.41059
H         71.33226      103.29743      -10.22388
H         70.81783      101.61912      -10.66572
H         71.84772      102.53059       -7.92269
H         70.27392      101.70237       -8.35225
N         75.03582      100.43255       -8.41634
C         76.41715      100.08034       -8.09760
C         76.55761       98.57576       -7.97181
O         77.36100       97.99985       -8.69250
C         76.95626      100.77411       -6.81076
C         76.99333      102.32113       -6.87622
C         75.69374      103.00826       -6.55128
O         75.55706      104.33159       -6.75468
O         74.78818      102.39636       -6.01865
H         74.53979      101.10986       -7.84089
H         77.06498      100.41452       -8.93972
H         78.01455      100.44295       -6.71808
H         76.43381      100.43137       -5.89117
H         77.36916      102.63215       -7.87295
H         77.71031      102.69846       -6.11453
N         75.75953       97.87058       -7.12307
C         75.77903       96.42369       -7.03533
H         74.78722       96.02881       -7.34314
H         76.54764       95.96718       -7.69497
H         75.98285       96.11602       -5.99017
H         75.07301       98.37473       -6.54306
Ca        73.81751      105.47083       -5.84306
O         74.60591      108.62097       -4.57165
H         74.95861      108.04257       -3.85211
H         74.33947      109.45782       -4.11450
O         72.87156      105.26183       -8.75650
H         72.76727      105.53478       -9.70228
H         72.24883      105.84835       -8.25854
O         75.78087      106.37228       -8.81167
H         76.65131      106.76795       -8.55799
H         75.88731      106.13519       -9.76636
O         77.34433      106.41011       -5.99463
H         77.66857      105.49596       -5.79463
H         78.13751      106.87780       -6.35474

Ca 1.0



