%chk=apoCaM-CA-Ng.loop2.water3.frame677.chk
%nprocshared=20
%mem=10GB
%nosave
#b3lyp/svp scf=(tight,noincore,xqc) Test 
#IOP(5/87=12) Density=Current Pop=(MK,readradii) iop(6/33=2) iop(6/42=6)

apoCaM-CA-Ng.loop2.water3.frame677 

   -2  1 
C        -12.34417       60.08380       76.06143
C        -13.49095       59.36941       75.40895
O        -13.41777       59.06759       74.22613
H        -11.52574       60.26900       75.33362
H        -12.69206       61.05997       76.46136
H        -11.94950       59.46925       76.89736
N        -14.60695       59.08187       76.13264
C        -15.77049       58.41210       75.56574
C        -15.42568       56.98733       75.16750
O        -14.98716       56.22063       76.01483
C        -16.92819       58.40582       76.58529
C        -18.18303       57.81540       76.00092
O        -18.74053       56.72483       76.55992
O        -18.70482       58.32498       75.02153
H        -14.63496       59.38229       77.12009
H        -16.11585       58.99680       74.68321
H        -17.15110       59.45043       76.89368
H        -16.62996       57.83355       77.49120
N        -15.64474       56.55362       73.89437
C        -15.39416       55.17540       73.47906
C        -13.90843       54.85039       73.51744
O        -13.11081       55.77644       73.46773
C        -15.90792       54.98043       72.04169
H        -16.04862       57.21726       73.21458
H        -15.95865       54.50477       74.16203
H        -15.37289       55.66539       71.34778
H        -15.76030       53.94752       71.67393
H        -16.99365       55.20842       71.99353
N        -13.42359       53.57242       73.53073
C        -14.23095       52.36283       73.70923
C        -14.63352       52.19156       75.16661
O        -14.19832       52.97253       76.00101
C        -13.42424       51.12201       73.24242
C        -12.15798       50.88363       74.03312
O        -12.21399       50.60602       75.35041
O        -11.07294       50.92070       73.47553
H        -12.40065       53.46363       73.44791
H        -15.13224       52.40754       73.06986
H        -13.16457       51.26518       72.17030
H        -14.05197       50.20822       73.30915
N        -15.41179       51.13879       75.55286
C        -15.59928       50.76916       76.94863
C        -17.02969       50.88458       77.41691
O        -17.87302       51.34526       76.66064
H        -15.82167       50.52153       74.83513
H        -14.97444       51.40146       77.60756
H        -15.25981       49.71788       77.06177
N        -17.40595       50.48662       78.67076
C        -16.50526       49.86570       79.64360
C        -15.41516       50.82756       80.07911
O        -15.72467       51.95338       80.44737
C        -17.27195       49.42192       80.91510
C        -16.43379       48.55930       81.84794
N        -16.90239       48.22559       83.07049
O        -15.33452       48.14902       81.50471
H        -18.40006       50.59551       78.92830
H        -16.07965       48.94524       79.18558
H        -18.16873       48.82784       80.63847
H        -17.61464       50.32994       81.45873
H        -17.81674       48.56811       83.39599
H        -16.33512       47.63842       83.70122
N        -14.12082       50.41587       80.14713
C        -13.07779       51.27338       80.67542
C        -11.79704       50.50394       80.85197
O        -11.32921       50.38368       81.97607
H        -13.89069       49.44560       79.88240
H        -13.39349       51.65730       81.67175
H        -12.91891       52.14005       79.99815
N        -11.16099       49.97313       79.77272
C         -9.90257       49.24843       79.86823
C         -8.82305       50.12235       79.28939
O         -8.89419       50.46514       78.12149
C         -9.99529       47.89661       79.12790
C         -8.65472       47.14602       79.13370
O        -10.97636       47.10480       79.74652
H        -11.56024       50.13905       78.83538
H         -9.65172       49.03624       80.93171
H        -10.27867       48.10019       78.06717
H        -11.35773       46.51379       79.04589
H         -7.86957       47.73823       78.61551
H         -8.32164       46.94411       80.17361
H         -8.75752       46.18248       78.59246
N         -7.79241       50.53666       80.07254
C         -6.72260       51.39736       79.58778
C         -5.93218       50.65161       78.51876
O         -5.40632       49.58500       78.80389
C         -5.81031       51.85520       80.77315
C         -4.63027       52.71704       80.25289
C         -6.64136       52.64950       81.81014
C         -3.64576       53.15936       81.33627
H         -7.77863       50.22765       81.05558
H         -7.17025       52.32069       79.15357
H         -5.39302       50.95106       81.27010
H         -5.01849       53.61645       79.72926
H         -4.04410       52.11323       79.53315
H         -7.48835       52.05872       82.21073
H         -6.03016       52.92173       82.69274
H         -7.05212       53.57605       81.35471
H         -2.81430       53.72447       80.86628
H         -4.12208       53.83508       82.07358
H         -3.22574       52.27261       81.85609
N         -5.78287       51.18863       77.27328
C         -4.98742       50.57993       76.20790
C         -3.72638       51.39317       75.92521
O         -2.95327       50.97203       75.07467
C         -5.83092       50.45699       74.92809
C         -6.94187       49.45074       75.03584
O         -8.22354       49.85408       74.97961
O         -6.68583       48.25988       75.12021
H         -6.21041       52.10736       77.08161
H         -4.63080       49.56818       76.50292
H         -5.19862       50.13321       74.07279
H         -6.24015       51.45850       74.68221
N         -3.40377       52.50920       76.64311
C         -2.12067       53.19099       76.54124
C         -2.33095       54.69184       76.36824
O         -1.94420       55.45364       77.24492
C         -1.31331       52.78980       77.79818
C          0.03031       53.46185       77.94412
C          0.35847       54.08735       79.16042
C          0.96919       53.46317       76.89762
C          1.60106       54.70110       79.32737
C          2.20602       54.09426       77.06425
C          2.52276       54.70935       78.27863
H         -4.03597       52.84302       77.38201
H         -1.53450       52.82979       75.67062
H         -1.14411       51.69180       77.74139
H         -1.92293       52.98122       78.70626
H         -0.34156       54.08834       79.98717
H          0.74613       52.98925       75.95116
H          1.84794       55.16925       80.27143
H          2.92082       54.10423       76.25206
H          3.48302       55.19041       78.40865
N         -2.91974       55.20849       75.24490
C         -3.13662       56.62915       74.99982
C         -3.86996       57.35017       76.10862
O         -3.61779       58.52930       76.31006
C         -4.02015       56.63726       73.74748
C         -3.49494       55.44242       72.99391
C         -3.35283       54.41273       74.11174
H         -2.15079       57.10955       74.80355
H         -5.07254       56.39315       74.02620
H         -4.01562       57.59957       73.19178
H         -4.11034       55.11007       72.13175
H         -2.47709       55.71045       72.62594
H         -4.31995       53.92709       74.36647
H         -2.60430       53.65944       73.78800
N         -4.81919       56.70673       76.84613
C         -5.59917       57.36661       77.87942
C         -4.67746       57.94646       78.93595
O         -4.79602       59.12881       79.22849
C         -6.66050       56.43992       78.52541
C         -7.84902       56.06535       77.60529
C         -7.70975       54.82061       76.76702
O         -8.60796       53.83615       76.95126
O         -6.87019       54.71226       75.89203
H         -4.97191       55.70939       76.67324
H         -6.16713       58.20987       77.42450
H         -7.11592       57.06760       79.32430
H         -6.23065       55.54681       79.02598
H         -8.13293       56.93108       76.97028
H         -8.71361       55.86135       78.27457
N         -3.69538       57.19079       79.50166
C         -2.74281       57.71786       80.45965
H         -1.72288       57.68105       80.02065
H         -2.95823       58.77164       80.73860
H         -2.76257       57.10091       81.38052
H         -3.58340       56.20901       79.20847
Ca        -8.68361       51.87781       75.84714
O        -11.46071       53.27871       77.09828
H        -11.89468       54.16885       77.10326
H        -12.10598       52.68248       77.55403
O        -10.25483       54.94305       74.66978
H        -10.96594       55.47348       75.10806
H         -9.46970       55.54552       74.66482
O         -7.86177       53.44071       73.25838
H         -7.55842       54.37313       73.39328
H         -7.04464       52.95495       72.98368

Ca 1.0



