%chk=apoCaM-CA-Ng.loop3.water2.frame885.chk
%nprocshared=20
%mem=10GB
%nosave
#b3lyp/svp scf=(tight,noincore,xqc) Test 
#IOP(5/87=12) Density=Current Pop=(MK,readradii) iop(6/33=2) iop(6/42=6)

apoCaM-CA-Ng.loop3.water2.frame885 

   0  1 
C         24.52592        2.44233       -8.86655
C         25.65487        2.89182       -9.74214
O         25.43739        3.77266      -10.55888
H         23.70882        2.02306       -9.48831
H         24.85904        1.67746       -8.13504
H         24.14030        3.31981       -8.30340
N         26.89668        2.34221       -9.62047
C         28.05992        2.82792      -10.35080
C         28.56561        1.74477      -11.28297
O         28.98091        0.69502      -10.80958
C         29.09938        3.27137       -9.30214
C         30.27474        4.04301       -9.81440
O         31.01630        4.57849       -9.00597
O         30.46760        4.27817      -11.12182
H         27.03724        1.57387       -8.94578
H         27.78124        3.71908      -10.95445
H         29.45026        2.40398       -8.70344
H         28.57309        3.96895       -8.61342
N         28.50457        1.91342      -12.63862
C         28.91807        0.87397      -13.58089
C         30.42149        0.64535      -13.56665
O         30.85800       -0.38135      -14.06501
C         28.48905        1.21416      -15.02379
C         26.96192        1.27814      -15.17617
C         26.56786        1.56668      -16.62915
C         25.04324        1.54282      -16.79664
N         24.66545        1.78758      -18.18783
H         28.10473        2.79076      -13.00550
H         28.41575       -0.07513      -13.28478
H         28.86314        0.41830      -15.70604
H         28.94659        2.18130      -15.33122
H         26.53510        2.06786      -14.52162
H         26.53552        0.29684      -14.87303
H         27.01228        0.79067      -17.29022
H         26.96270        2.56201      -16.93134
H         24.58128        2.31834      -16.14585
H         24.65605        0.54667      -16.48572
H         23.62431        1.74144      -18.27214
H         24.98968        2.73560      -18.48738
H         25.08602        1.05774      -18.80825
N         31.27211        1.58050      -13.05778
C         32.72029        1.41839      -12.99781
C         33.23395        1.47985      -11.56363
O         34.42600        1.28870      -11.37806
C         33.42321        2.46712      -13.89363
C         33.12932        3.90302      -13.53917
O         32.00521        4.36001      -13.67205
O         34.12558        4.71081      -13.13213
H         30.87692        2.45679      -12.70538
H         33.01045        0.41899      -13.38888
H         33.12838        2.30513      -14.95277
H         34.52093        2.30163      -13.82631
N         32.40903        1.70828      -10.50110
C         32.83496        1.74074       -9.10993
C         33.72450        2.91013       -8.70891
O         34.03508        2.97910       -7.52716
H         31.40045        1.80683      -10.65831
H         33.33875        0.78242       -8.85984
H         31.92344        1.81063       -8.47671
N         34.19616        3.84596       -9.58863
C         35.08392        4.94317       -9.19228
C         34.54096        6.30234       -9.64246
O         33.54850        6.36398      -10.35348
C         36.49147        4.73170       -9.81166
C         37.27875        3.59158       -9.19624
N         36.88439        2.30357       -9.30563
O         38.31576        3.84444       -8.60067
H         33.95959        3.76829      -10.58661
H         35.19348        4.98874       -8.08623
H         37.09706        5.64644       -9.64245
H         36.40939        4.59244      -10.91206
H         36.03592        2.05130       -9.81697
H         37.44429        1.54654       -8.88588
N         35.19693        7.44475       -9.27693
C         34.88948        8.78431       -9.76667
C         33.53179        9.29654       -9.35047
O         33.26922        9.36049       -8.15741
H         36.01491        7.35957       -8.65359
H         34.99525        8.79833      -10.87117
H         35.64107        9.48947       -9.34937
N         32.61863        9.69249      -10.29045
C         31.28148       10.16362       -9.94934
C         30.28206        9.03845      -10.26202
O         30.66275        7.88458       -9.59639
C         30.86726       11.42872      -10.74477
C         31.65513       12.69535      -10.51542
C         31.82184       13.22726       -9.22486
C         32.15507       13.41037      -11.61843
C         32.47769       14.45132       -9.04464
C         32.79896       14.63723      -11.43663
C         32.96122       15.16384      -10.15234
O         33.57075       16.35690       -9.99761
H         32.85141        9.58190      -11.28843
H         31.20734       10.37374       -8.85942
H         29.82753       11.68982      -10.45437
H         30.84754       11.17983      -11.82900
H         31.43325       12.70663       -8.35952
H         32.01822       13.03707      -12.62575
H         32.59511       14.85343       -8.04616
H         33.15768       15.18693      -12.29818
H         33.68839       16.76791       -9.12941
N         28.90379        9.42439       -9.89603
C         27.83625        8.39568       -9.86490
C         27.69271        7.64922      -11.18330
O         28.26472        6.58318      -11.33399
C         27.88310        7.40906       -8.63950
C         26.67789        6.42292       -8.61424
C         27.99323        8.14563       -7.29322
C         25.29601        7.07195       -8.49898
H         28.88465        9.98548       -9.01463
H         26.90341        8.98426       -9.73868
H         28.78040        6.76312       -8.72152
H         26.80538        5.72253       -7.76023
H         26.68568        5.80405       -9.53270
H         27.14546        8.84599       -7.14710
H         28.00636        7.41320       -6.45808
H         28.94268        8.71433       -7.22794
H         25.08402        7.72548       -9.36917
H         24.52247        6.27542       -8.48234
H         25.20661        7.65692       -7.56163
N         26.83987        8.09895      -12.14197
C         26.50147        7.31835      -13.33350
C         25.62153        8.11689      -14.27408
O         25.90409        8.14227      -15.46413
C         25.78472        6.00198      -12.96018
O         24.60838        6.25897      -12.24276
H         26.39950        9.01859      -11.99353
H         27.43076        7.04356      -13.88127
H         26.45044        5.35725      -12.35292
H         25.54784        5.44830      -13.89838
H         24.11566        5.39839      -12.20009
N         24.54194        8.80690      -13.80446
C         23.62986        9.55403      -14.66152
C         24.35467       10.58795      -15.52504
O         25.44387       11.00098      -15.15159
C         22.59657       10.27524      -13.78237
H         24.35174        8.79057      -12.79078
H         23.11609        8.81206      -15.29408
H         23.11322       11.00276      -13.11741
H         21.85516       10.83109      -14.37971
H         22.04911        9.54581      -13.15041
N         23.81559       11.11017      -16.67078
C         22.57650       10.64921      -17.29162
C         22.05642       11.66734      -18.30198
O         22.78844       11.98633      -19.22970
C         22.80169        9.32362      -18.04079
H         24.34025       11.86674      -17.13864
H         21.82339       10.47583      -16.51310
H         23.54129        9.45633      -18.85859
H         23.17491        8.51320      -17.39068
H         21.84081        8.98094      -18.48359
N         20.79239       12.19094      -18.25851
C         19.79408       11.86358      -17.24149
C         20.10236       12.46537      -15.87276
O         19.37986       12.15987      -14.93278
C         18.36173       12.23334      -17.70346
C         17.91929       13.71155      -17.65093
C         18.71551       14.66478      -18.49560
O         19.98282       14.97547      -18.16435
O         18.19004       15.22505      -19.44424
H         20.51229       12.78149      -19.05415
H         19.77115       10.75447      -17.16378
H         17.65365       11.69144      -17.03675
H         18.20729       11.82881      -18.72811
H         17.92482       14.07929      -16.60330
H         16.86270       13.72824      -18.00101
N         21.13553       13.33514      -15.67535
C         21.41194       13.92267      -14.38112
H         22.28819       14.60203      -14.45191
H         20.53535       14.51036      -14.03483
H         21.63996       13.13096      -13.63821
H         21.74513       13.61047      -16.45786
Ca        30.85085        6.44338      -11.32132
O         30.25026        7.84058      -13.94217
H         30.69341        7.80841      -14.82696
H         29.55255        8.53640      -14.03648
O         33.26006        7.66658      -13.20010
H         34.21899        7.49226      -13.02682
H         33.25486        8.46608      -13.78384

Ca 1.0



