%chk=apoCaM-CA-Ng.loop4.water7.frame851.chk
%nprocshared=20
%mem=10GB
%nosave
#b3lyp/svp scf=(tight,noincore,xqc) Test 
#IOP(5/87=12) Density=Current Pop=(MK,readradii) iop(6/33=2) iop(6/42=6)

apoCaM-CA-Ng.loop4.water7.frame851 

   -3  1 
C         69.89010       68.79693       72.15241
C         69.86421       68.96215       70.66023
O         70.92195       69.09995       70.06372
H         68.86592       68.67959       72.56649
H         70.48173       67.89628       72.41877
H         70.35428       69.69039       72.61646
N         68.67796       68.94590       69.98800
C         68.53628       69.08991       68.54360
C         69.27035       67.97073       67.81825
O         70.05427       68.23521       66.91578
C         68.96185       70.51271       68.10157
C         68.69738       70.77040       66.64312
O         69.61624       71.06632       65.89542
O         67.44446       70.68773       66.15698
H         67.80970       68.80852       70.52828
H         67.45436       68.97495       68.30806
H         70.04073       70.67250       68.31476
H         68.38383       71.25920       68.68745
N         69.07579       66.67375       68.19201
C         69.75500       65.56844       67.51837
C         69.11894       65.31123       66.15030
O         67.95820       65.66224       65.98610
C         69.74851       64.25923       68.37354
C         68.31094       63.73341       68.66087
C         70.54998       64.47632       69.67121
C         68.28143       62.35686       69.32779
H         68.47334       66.49160       69.00634
H         70.81197       65.88244       67.39906
H         70.28468       63.48300       67.78932
H         67.75996       63.62761       67.70338
H         67.74863       64.44108       69.30430
H         70.65744       63.53233       70.24159
H         71.57771       64.82168       69.42896
H         70.06500       65.23354       70.32229
H         68.79809       61.61020       68.68849
H         68.75179       62.37626       70.33088
H         67.22575       62.03697       69.46017
N         69.74776       64.66751       65.11875
C         71.15660       64.29933       65.06449
C         71.76272       64.99783       63.85806
O         71.64991       64.48963       62.75014
C         71.31501       62.76897       64.97675
C         72.76603       62.36992       64.93885
O         73.20823       61.74946       63.98536
O         73.58494       62.69714       65.95744
H         69.18967       64.47488       64.27093
H         71.69752       64.62404       65.97149
H         70.79039       62.38601       64.07367
H         70.84884       62.29456       65.86489
N         72.31173       66.23620       63.99321
C         72.80815       67.01989       62.87000
C         74.20330       67.52478       63.13156
O         75.10700       67.24849       62.35564
H         72.31757       66.66585       64.93039
H         72.15293       67.90812       62.74642
H         72.77934       66.44530       61.91853
N         74.42936       68.31613       64.21447
C         75.71072       68.92916       64.53894
C         76.85153       67.92784       64.63915
O         77.88474       68.18683       64.03523
C         75.58517       69.83569       65.79047
C         74.96561       69.19062       67.00899
O         73.91531       69.62780       67.45253
O         75.55479       68.15815       67.63412
H         73.62682       68.52117       64.82791
H         75.98870       69.62457       63.71321
H         74.92897       70.68832       65.50321
H         76.57973       70.26048       66.04833
N         76.75710       66.75898       65.33575
C         77.89096       65.84652       65.43522
C         79.00999       66.39995       66.30600
O         80.08245       65.81485       66.33023
H         75.86322       66.49381       65.77419
H         78.26572       65.63149       64.41066
H         77.56809       64.88306       65.88537
N         78.79544       67.47686       67.11417
C         79.74241       68.04501       68.06022
C         80.26169       67.02300       69.05726
O         81.41192       67.11181       69.46489
C         80.84100       68.87733       67.37030
C         80.21834       70.00531       66.52496
C         81.22981       70.97234       65.96303
N         80.80742       72.02087       65.21958
O         82.42403       70.83017       66.18340
H         77.86780       67.91000       67.12659
H         79.16423       68.76783       68.68088
H         81.48782       68.23258       66.73680
H         81.46682       69.34355       68.16381
H         79.52083       70.59242       67.16160
H         79.64178       69.56161       65.68563
H         79.80357       72.15771       65.02849
H         81.48196       72.70052       64.83855
N         79.42649       66.06183       69.54742
C         79.77515       65.18652       70.66486
C         78.79997       65.35793       71.82583
O         79.14690       64.94263       72.92356
C         79.87584       63.69576       70.24271
C         78.55614       63.14992       69.67236
C         81.01273       63.48670       69.23400
H         78.49636       65.97205       69.11921
H         80.77027       65.48361       71.06500
H         80.13000       63.09875       71.14763
H         78.66301       62.06936       69.43778
H         77.73495       63.25670       70.41157
H         78.27291       63.68009       68.73897
H         81.11332       62.40745       68.98943
H         80.82181       64.04760       68.29599
H         81.97631       63.82985       69.66805
N         77.55720       65.91095       71.66589
C         76.61098       66.10008       72.75654
C         76.16249       67.55562       72.78490
O         76.37536       68.27105       71.81283
C         75.44996       65.10287       72.55120
C         74.46272       65.02740       73.69093
N         74.35682       63.89746       74.43072
O         73.73454       65.97647       73.93572
H         77.22461       66.18300       70.73334
H         77.10839       65.86591       73.72348
H         75.91664       64.09982       72.43516
H         74.90928       65.32516       71.60547
H         74.95377       63.07901       74.23980
H         73.67826       63.83914       75.20401
N         75.59986       68.08730       73.90425
C         75.24475       69.50303       73.99973
C         75.31657       69.98017       75.44535
O         75.39715       69.16206       76.35093
C         73.87358       69.73450       73.32245
C         73.45021       71.17999       73.21135
C         72.26573       71.61885       73.82513
C         74.21214       72.09537       72.46445
C         71.85259       72.94885       73.69890
C         73.79881       73.42664       72.34286
C         72.61917       73.85792       72.95822
O         72.23015       75.14256       72.82741
H         75.52859       67.47963       74.73313
H         76.04047       70.07707       73.47398
H         73.11163       69.14838       73.88218
H         73.90515       69.32736       72.28841
H         71.65747       70.92898       74.39518
H         75.12226       71.77853       71.97165
H         70.93448       73.27288       74.17164
H         74.39299       74.12291       71.76451
H         71.41869       75.47881       73.23463
N         75.46318       71.30661       75.71803
C         75.80494       71.80714       77.04235
C         74.90918       72.98674       77.38719
O         75.38150       74.11258       77.33349
C         77.32307       72.14571       77.02068
C         77.96234       72.39428       78.40353
C         77.55813       73.68341       79.05311
O         77.82394       74.74908       78.51935
O         76.92881       73.67275       80.24340
H         75.49226       71.97526       74.93342
H         75.70554       71.02043       77.81652
H         77.54780       72.97644       76.31616
H         77.83840       71.23956       76.62894
H         79.06683       72.42332       78.28131
H         77.71981       71.53931       79.07167
N         73.59480       72.86796       77.73397
C         72.83110       71.62869       77.87797
C         73.38495       70.75721       78.98679
O         73.57799       71.24064       80.09465
C         71.36501       71.94913       78.24631
C         70.62059       72.68107       77.12382
C         69.22476       73.01097       77.55231
O         68.26904       72.54888       76.95007
O         69.02309       73.83235       78.60011
H         73.10352       73.75421       77.93105
H         72.82519       71.06814       76.91726
H         71.34772       72.55845       79.17850
H         70.82110       70.99736       78.44377
H         70.59180       72.02472       76.23036
H         71.12741       73.62984       76.85331
N         73.60293       69.43186       78.76813
C         74.07909       68.54425       79.80534
H         75.08357       68.86623       80.15047
H         73.37018       68.54727       80.66110
H         74.14934       67.50772       79.41128
H         73.39116       69.02797       77.84409
Ca        66.12132       73.63191       78.88271
O         64.76573       72.12267       76.61331
H         65.04992       71.17422       76.61173
H         64.68432       72.36026       75.65574
O         67.58722       73.30884       81.68002
H         67.29360       74.10862       82.18433
H         68.46519       73.56446       81.30078
O         64.05583       75.51125       77.78332
H         64.19274       76.49175       77.78293
H         63.07976       75.39456       77.90007
O         66.87799       76.50727       79.95867
H         65.94521       76.79715       79.79698
H         66.92145       76.34833       80.93486
O         65.22365       70.90327       79.96444
H         65.55337       70.46432       79.14042
H         65.92290       70.71839       80.64061
O         67.17485       75.58986       76.57664
H         67.08494       75.13726       75.70056
H         68.03858       76.07071       76.52078
O         64.08500       73.99892       80.98261
H         63.39432       74.65628       81.24781
H         64.65218       73.89289       81.78714

Ca 1.0



