%chk=apoCaM-CA-Ng.loop4.water4.frame477.chk
%nprocshared=20
%mem=10GB
%nosave
#b3lyp/svp scf=(tight,noincore,xqc) Test 
#IOP(5/87=12) Density=Current Pop=(MK,readradii) iop(6/33=2) iop(6/42=6)

apoCaM-CA-Ng.loop4.water4.frame477 

   -3  1 
C         33.75503       61.23309       98.78104
C         32.90585       61.35195      100.01023
O         32.45172       60.32983      100.49822
H         34.63156       60.58715       98.99974
H         33.15938       60.77096       97.96569
H         34.11761       62.22455       98.43937
N         32.66436       62.56896      100.58047
C         31.85280       62.76939      101.77627
C         32.42933       62.00341      102.95156
O         31.80670       61.07254      103.42110
C         30.33110       62.58076      101.50738
C         29.85207       61.23116      101.03853
O         29.94083       60.14824      101.83239
O         29.32296       61.12423       99.94369
H         33.09883       63.40482      100.16090
H         31.91734       63.84381      102.06318
H         30.05096       63.32943      100.73289
H         29.76988       62.84119      102.43153
N         33.63834       62.38441      103.46520
C         34.35252       61.82773      104.62215
C         33.60288       62.06835      105.93099
O         34.07344       62.86234      106.73411
C         34.76482       60.33855      104.44323
C         35.68598       59.83345      105.59511
C         35.43427       60.10363      103.08154
C         37.06081       60.51366      105.68275
H         34.10829       63.17384      102.99452
H         35.29346       62.41657      104.68313
H         33.84655       59.71489      104.46047
H         35.86118       58.74436      105.45919
H         35.17244       59.96349      106.57089
H         35.72530       59.03840      102.99052
H         34.73065       60.34084      102.25819
H         36.33520       60.73552      102.95151
H         37.64683       60.35549      104.75481
H         36.97120       61.60088      105.87684
H         37.63890       60.07016      106.52024
N         32.43775       61.42202      106.22068
C         31.67261       61.64129      107.43364
C         32.42234       61.09815      108.64506
O         32.69483       61.90552      109.52251
C         30.23637       61.10031      107.27549
C         29.49598       61.83973      106.18942
O         29.06752       61.24011      105.21636
O         29.29713       63.16843      106.28882
H         32.06222       60.73462      105.56743
H         31.54174       62.73962      107.57861
H         29.67648       61.23772      108.22560
H         30.25061       60.03274      107.00576
N         32.86610       59.80992      108.80397
C         32.69920       58.67753      107.89882
C         31.35610       57.99504      108.06372
O         30.52955       58.49622      108.81352
H         33.43756       59.62295      109.64363
H         33.45166       57.91865      108.19873
H         32.92551       58.95582      106.85313
N         31.05096       56.80168      107.47012
C         31.97900       55.98258      106.68870
C         32.32069       56.55164      105.28308
O         31.54670       57.66353      104.92247
C         31.44473       54.53769      106.53849
C         30.23978       54.40983      105.64198
O         30.29458       53.69831      104.65174
O         29.09048       55.04695      105.93272
H         30.12975       56.40143      107.70210
H         32.89937       55.86710      107.29429
H         31.19681       54.13631      107.54430
H         32.25225       53.89368      106.13098
N         33.75645       56.80303      105.07252
C         34.52644       55.54854      104.98676
C         35.38235       55.37772      106.21127
O         35.39452       56.25831      107.06121
H         33.87591       57.29154      104.15850
H         35.21878       55.58495      104.11401
H         33.87463       54.66482      104.82584
N         36.17643       54.27779      106.34138
C         37.13421       54.13080      107.43311
C         38.56312       54.30915      106.92768
O         39.45768       54.42155      107.75422
C         36.83735       52.86980      108.27753
C         36.91766       51.50919      107.56549
C         38.32177       51.09860      107.22418
N         39.24642       50.92313      108.19653
O         38.62097       50.88665      106.06237
H         36.14355       53.55677      105.60424
H         37.00705       54.97667      108.14348
H         35.79147       52.97906      108.64122
H         37.48902       52.86134      109.17723
H         36.27238       51.51569      106.66153
H         36.51369       50.73299      108.25118
H         39.00817       51.07092      109.18746
H         40.20198       50.62132      107.96124
N         38.83277       54.47055      105.59408
C         40.09880       54.97611      105.06884
C         40.81854       53.98333      104.17136
O         41.86862       54.34041      103.65505
C         39.83750       56.29970      104.27783
C         39.20851       57.37327      105.17629
C         38.95878       56.09890      103.02309
H         38.08726       54.31697      104.90572
H         40.79756       55.21025      105.90211
H         40.81993       56.69225      103.93309
H         39.09202       58.32029      104.60794
H         38.20604       57.05689      105.53681
H         39.86131       57.57195      106.05167
H         38.87148       57.05617      102.46776
H         39.40835       55.35167      102.33575
H         37.93085       55.77057      103.27945
N         40.33400       52.73218      103.93521
C         40.98467       51.78844      103.03363
C         40.04419       51.32583      101.92221
O         40.49904       50.56138      101.08104
C         41.46541       50.55941      103.83809
C         42.37275       50.92857      104.98829
N         43.55332       51.55521      104.77827
O         42.03729       50.64732      106.12852
H         39.48467       52.42482      104.42053
H         41.86761       52.25707      102.54813
H         42.01110       49.85833      103.16983
H         40.57716       50.02455      104.24169
H         43.86376       51.79645      103.82689
H         44.16197       51.79811      105.57470
N         38.71684       51.66891      101.88686
C         37.76218       51.04282      100.97852
C         36.81775       52.05046      100.33014
O         36.20135       52.83240      101.03978
C         36.90165       50.04412      101.78523
C         37.72093       48.97983      102.48120
C         37.67279       48.86065      103.87972
C         38.52738       48.09145      101.74777
C         38.42167       47.87927      104.53474
C         39.27718       47.11030      102.40499
C         39.22794       47.00044      103.79853
O         39.95424       46.04765      104.41717
H         38.32021       52.27837      102.61440
H         38.28002       50.45502      100.19017
H         36.19179       49.53240      101.10283
H         36.30521       50.60888      102.53637
H         37.05309       49.52728      104.46525
H         38.57750       48.15557      100.66855
H         38.37294       47.80317      105.61376
H         39.89577       46.43277      101.82978
H         39.94387       45.93597      105.37866
N         36.54721       51.96424       98.99291
C         35.44756       52.64085       98.29350
C         35.57117       54.14733       98.12619
O         34.67004       54.70340       97.51074
C         34.07428       52.34376       98.95279
C         33.76185       50.85308       99.10507
C         32.39157       50.67172       99.69640
O         32.24313       50.05760      100.88545
O         31.40632       51.08443       99.10432
H         37.06794       51.26354       98.44301
H         35.41589       52.22529       97.26069
H         33.27794       52.79368       98.31872
H         34.01408       52.82922       99.95031
H         34.50946       50.38461       99.77425
H         33.80185       50.34832       98.11673
N         36.61138       54.88756       98.60223
C         36.63396       56.34562       98.47255
C         37.73514       56.82942       97.54202
O         37.81815       58.03328       97.33635
C         36.81439       56.98959       99.85474
C         35.79510       56.56946      100.91891
C         34.38134       57.01298      100.66989
O         33.66827       56.43873       99.86294
O         33.87887       57.96708      101.47355
H         37.39950       54.42296       99.07641
H         35.68124       56.72266       98.04134
H         36.78913       58.09859       99.76192
H         37.81820       56.70086      100.23444
H         36.12984       57.05249      101.85990
H         35.81476       55.47530      101.10184
N         38.60740       55.97313       96.93463
C         39.65860       56.41694       96.04046
H         40.64296       56.11062       96.45110
H         39.51776       55.94446       95.04632
H         39.66697       57.51901       95.90315
H         38.54219       54.95939       97.09950
Ca        31.98933       57.83917      102.68304
O         30.56095       57.94979       99.46279
H         30.16752       58.63028       98.86093
H         31.53777       58.04758       99.34011
O         30.34877       55.32893      102.02499
H         30.84547       55.28813      101.16976
H         31.05499       55.32168      102.71845
O         28.07907       57.49419      101.35093
H         27.71475       58.39701      101.53100
H         27.94827       57.36418      100.37822
O         28.83035       58.22950      104.38031
H         29.02364       58.42312      105.33201
H         27.88543       58.49704      104.26027

Ca 1.0



