%chk=apoCaM-CA-Ng.loop2.water6.frame1257.chk
%nprocshared=20
%mem=10GB
%nosave
#b3lyp/svp scf=(tight,noincore,xqc) Test 
#IOP(5/87=12) Density=Current Pop=(MK,readradii) iop(6/33=2) iop(6/42=6)

apoCaM-CA-Ng.loop2.water6.frame1257 

   -2  1 
C         39.64501       56.54285       27.74985
C         39.98626       57.36174       26.53438
O         41.00297       57.08192       25.91689
H         38.66354       56.04510       27.59611
H         40.40752       55.75102       27.91350
H         39.60582       57.18243       28.65447
N         39.18665       58.36771       26.07371
C         37.94724       58.80538       26.70991
C         37.97005       60.33323       26.86943
O         39.04155       60.86200       27.13043
C         36.75620       58.19225       25.92936
C         36.74734       58.65576       24.50475
O         36.52400       59.82528       24.25269
O         37.09708       57.83620       23.49673
H         39.45441       58.82863       25.19062
H         37.87783       58.39222       27.73632
H         35.78129       58.40490       26.41557
H         36.89165       57.08824       25.94162
N         36.83742       61.10019       26.79294
C         36.79307       62.54498       27.03554
C         37.53928       63.39239       26.00044
O         37.82875       64.54221       26.30337
C         37.25153       62.86776       28.46997
H         35.93335       60.64244       26.61437
H         35.72946       62.87005       26.98524
H         37.09019       63.94410       28.69414
H         36.65961       62.27630       29.19994
H         38.32786       62.64984       28.61954
N         37.78140       62.95028       24.72943
C         38.43038       63.77205       23.69983
C         37.44598       64.18851       22.61346
O         36.30921       63.73795       22.61199
C         39.69817       63.07262       23.15807
C         39.46339       61.64325       22.74911
O         40.01841       60.75282       23.37326
O         38.60945       61.30915       21.76268
H         37.45836       62.01409       24.46337
H         38.76354       64.73562       24.14254
H         40.43998       63.06043       23.98829
H         40.14499       63.64746       22.32038
N         37.79356       65.17892       21.73721
C         36.83457       65.83346       20.85470
C         36.48505       65.08194       19.58673
O         35.62473       65.55964       18.86068
H         38.73062       65.60229       21.82155
H         37.26097       66.80690       20.52636
H         35.91537       66.06396       21.43500
N         37.14654       63.95817       19.20276
C         36.88972       63.27929       17.93191
C         35.52200       62.62583       17.92753
O         35.18837       61.94176       18.88168
C         37.96896       62.20937       17.67766
C         39.38255       62.74225       17.50082
N         39.69204       64.06582       17.52373
O         40.27788       61.93210       17.31698
H         37.90748       63.60551       19.80237
H         36.95077       63.99727       17.08334
H         37.71154       61.65980       16.74495
H         37.96194       61.48637       18.52182
H         38.98782       64.80251       17.65911
H         40.66799       64.36988       17.39225
N         34.69919       62.72860       16.84449
C         33.41495       62.04614       16.78393
C         32.39878       62.67205       17.71656
O         32.69213       63.70435       18.30396
H         35.01769       63.24718       16.01187
H         33.56691       60.97177       17.02510
H         33.01526       62.11795       15.75066
N         31.15958       62.13761       17.91813
C         30.68853       60.87049       17.36276
C         30.68725       60.83214       15.84934
O         30.16770       61.73062       15.20413
C         29.25983       60.51328       17.85634
C         29.26002       60.07162       19.32005
O         28.37656       61.59483       17.69248
H         30.52690       62.65331       18.55004
H         31.35512       60.05539       17.72114
H         28.88355       59.62328       17.29455
H         28.06263       61.58088       16.75196
H         29.90740       59.17432       19.43824
H         29.63023       60.87521       19.98735
H         28.23013       59.78742       19.62484
N         31.15186       59.70478       15.24109
C         30.96219       59.38201       13.83665
C         29.66811       58.57943       13.75769
O         29.53239       57.63448       14.52366
C         32.20042       58.58899       13.32765
C         33.50557       59.42333       13.43557
C         32.00934       58.04553       11.90227
C         33.52089       60.71249       12.60383
H         31.47457       58.93376       15.84726
H         30.85671       60.30929       13.24923
H         32.33136       57.69579       13.98030
H         34.35983       58.78962       13.11286
H         33.68211       59.69720       14.49804
H         31.83701       58.85604       11.16770
H         32.90404       57.46220       11.59609
H         31.14576       57.35359       11.87279
H         34.50084       61.21742       12.72956
H         33.38289       60.49745       11.52492
H         32.73836       61.42200       12.94076
N         28.62476       58.90416       12.93720
C         28.68508       59.85467       11.82262
C         27.90553       59.27535       10.63496
O         27.20679       58.29471       10.82489
C         28.12910       61.21627       12.29983
C         28.50164       62.42288       11.47442
O         28.02898       63.63037       11.83573
O         29.28569       62.34917       10.54350
H         27.74878       58.38050       13.08454
H         29.73870       59.95683       11.50159
H         28.53878       61.43042       13.30650
H         27.02528       61.13921       12.40025
N         27.96059       59.80402        9.38114
C         27.20746       59.24071        8.26354
C         28.16547       58.83555        7.15951
O         28.95965       59.67646        6.75998
C         26.15793       60.26592        7.79410
C         25.19758       59.64013        6.80891
C         25.56587       59.42560        5.46919
C         23.92402       59.23027        7.24297
C         24.67634       58.80745        4.58452
C         23.04313       58.60397        6.35833
C         23.41855       58.39231        5.03007
H         28.54591       60.62453        9.19427
H         26.62847       58.35606        8.59405
H         26.60535       61.19986        7.38907
H         25.58596       60.55294        8.70468
H         26.53803       59.73533        5.10860
H         23.62035       59.37325        8.27283
H         24.96458       58.64386        3.55446
H         22.07167       58.27702        6.70607
H         22.73490       57.90488        4.34744
N         28.15098       57.59489        6.57089
C         27.15844       56.54463        6.78409
C         27.51045       55.56393        7.90459
O         26.79044       54.58525        8.04307
C         27.16368       55.82954        5.42585
C         28.63755       55.85173        5.07250
C         29.00678       57.28383        5.43902
H         26.13275       56.93822        6.94524
H         26.67985       54.82980        5.41055
H         26.63718       56.47594        4.68508
H         29.16157       55.15516        5.76477
H         28.88699       55.57071        4.02738
H         30.09033       57.36880        5.67083
H         28.74169       57.97550        4.60780
N         28.57647       55.74374        8.73775
C         28.95992       54.78278        9.77919
C         30.40141       54.32748        9.57732
O         31.09306       54.90092        8.74745
C         28.77068       55.45317       11.15989
C         27.30112       55.50826       11.61436
C         26.76864       54.17303       12.06444
O         26.65701       53.24272       11.28374
O         26.38725       54.00768       13.34581
H         29.14721       56.59661        8.64226
H         28.35088       53.86367        9.70357
H         29.18247       56.48109       11.08735
H         29.33722       54.96985       11.97232
H         26.65035       55.91854       10.81496
H         27.25272       56.18307       12.49376
N         30.94243       53.26531       10.24996
C         30.22500       52.41826       11.18610
H         29.33855       51.96333       10.69726
H         30.88755       51.59617       11.53026
H         29.91502       52.96679       12.09124
H         31.91988       53.00616       10.04436
Ca        38.03374       59.12840       21.91173
O         40.41658       58.95258       20.14235
H         40.43735       58.64744       19.20115
H         41.36330       59.13063       20.36961
O         35.60693       60.63992       21.29898
H         35.98835       61.54268       21.42595
H         36.10944       60.27394       20.52824
O         40.63710       57.85336       22.98428
H         40.20676       57.00510       23.25841
H         41.49760       57.57951       22.57969
O         38.30569       56.19716       21.00896
H         37.96393       55.74397       20.19787
H         39.06254       55.63440       21.30966
O         37.59316       58.63593       18.84882
H         36.93836       57.95825       18.54621
H         37.98129       58.99851       18.01352
O         35.37247       57.67779       21.07002
H         34.42842       57.89612       21.27272
H         35.33938       56.78686       20.64081

Ca 1.0



