%chk=apoCaM-CA-Ng.loop4.water3.frame155.chk
%nprocshared=20
%mem=10GB
%nosave
#b3lyp/svp scf=(tight,noincore,xqc) Test 
#IOP(5/87=12) Density=Current Pop=(MK,readradii) iop(6/33=2) iop(6/42=6)

apoCaM-CA-Ng.loop4.water3.frame155 

   -3  1 
C         47.02415       54.10756       53.88467
C         46.23844       52.87310       54.20080
O         46.80990       51.79392       54.19526
H         48.08274       53.85173       53.66234
H         46.58383       54.61337       53.00081
H         46.99908       54.79481       54.75586
N         44.91474       52.96896       54.51866
C         44.06241       51.83706       54.86776
C         44.63294       51.08569       56.05643
O         44.93779       49.91295       55.94302
C         43.67035       50.98526       53.62769
C         44.78529       50.37572       52.82183
O         45.59564       49.44511       53.35507
O         44.93324       50.69640       51.65311
H         44.49080       53.90861       54.55611
H         43.08482       52.23879       55.21892
H         43.09210       51.65347       52.95096
H         42.98328       50.17225       53.94944
N         44.78873       51.75293       57.23958
C         45.26709       51.22411       58.52018
C         44.26549       50.26467       59.16035
O         43.72331       50.62133       60.19827
C         46.71590       50.66166       58.46252
C         47.22297       50.19429       59.85772
C         47.68620       51.69509       57.86095
C         47.23341       51.27259       60.95128
H         44.53643       52.75390       57.24122
H         45.30741       52.10756       59.19554
H         46.73289       49.77183       57.80104
H         48.25712       49.80559       59.74527
H         46.59134       49.35460       60.21722
H         47.70208       52.63202       58.45506
H         48.71556       51.27846       57.81986
H         47.38756       51.95336       56.82576
H         47.88639       52.12422       60.67400
H         46.21310       51.64816       61.16485
H         47.61751       50.83509       61.89563
N         43.95139       49.04991       58.62325
C         42.96356       48.16720       59.22318
C         43.48839       47.58546       60.53641
O         42.87338       47.87067       61.55418
C         42.46190       47.12469       58.19610
C         41.42325       46.21347       58.78683
O         41.60497       45.00665       58.80665
O         40.28279       46.72366       59.29005
H         44.39667       48.73908       57.75788
H         42.05742       48.77678       59.44848
H         43.28174       46.53209       57.76135
H         42.00433       47.66655       57.34031
N         44.59612       46.79075       60.65440
C         45.42859       46.35199       59.54039
C         46.56995       45.44914       59.95749
O         46.71681       45.19160       61.14431
H         44.83758       46.48748       61.61011
H         45.84286       47.23976       59.03123
H         44.81033       45.74144       58.88022
N         47.44972       44.88813       59.07361
C         47.53864       45.03408       57.61407
C         47.87860       46.47698       57.14347
O         46.73565       47.20275       56.78351
C         46.35716       44.40772       56.84624
C         46.12557       42.98168       57.25806
O         44.94052       42.61695       57.78311
O         47.00593       42.14759       57.11694
H         48.17520       44.28118       59.48993
H         48.41923       44.42914       57.30143
H         46.57846       44.43291       55.75677
H         45.42898       44.98537       56.99675
N         48.66751       47.25624       58.11507
C         49.89374       46.62278       58.62759
C         49.93233       46.77549       60.12571
O         49.14986       47.53828       60.67820
H         48.88839       48.20797       57.74238
H         50.80813       47.05248       58.16307
H         49.92210       45.54123       58.40859
N         50.78033       46.01514       60.87061
C         50.78905       46.08356       62.32880
C         51.38545       47.38974       62.85035
O         51.33703       47.61024       64.05068
C         51.48437       44.84170       62.93258
C         52.99250       44.73469       62.64622
C         53.52243       43.41651       63.15765
N         54.45926       43.36596       64.13195
O         53.09678       42.37494       62.68002
H         51.36353       45.31932       60.38184
H         49.73000       46.02183       62.66941
H         50.96596       43.94554       62.52348
H         51.33658       44.83927       64.03547
H         53.51321       45.58634       63.13232
H         53.20117       44.78132       61.55792
H         54.82861       44.22416       64.55873
H         54.81219       42.45841       64.47006
N         51.98616       48.28418       62.00822
C         52.62106       49.52666       62.44583
C         54.12552       49.47405       62.23461
O         54.79447       50.43373       62.60073
C         52.01320       50.75422       61.70950
C         50.54686       50.95063       62.09701
C         52.14692       50.66634       60.17629
H         52.04933       48.06094       61.00826
H         52.47661       49.67200       63.53895
H         52.56143       51.66268       62.04599
H         49.93841       50.07645       61.78593
H         50.45638       51.08105       63.19640
H         50.14862       51.86528       61.60933
H         53.20895       50.53850       59.87855
H         51.55475       49.82349       59.76430
H         51.76975       51.59879       59.70602
N         54.73586       48.38936       61.68241
C         56.17157       48.26743       61.52183
C         56.54494       48.09230       60.06507
O         57.45348       48.78348       59.62750
C         56.67962       47.07927       62.35912
C         56.42829       47.29946       63.83324
N         56.99548       48.33908       64.49026
O         55.70746       46.52802       64.44359
H         54.17579       47.57539       61.39534
H         56.70458       49.17264       61.88907
H         57.77433       46.95385       62.21235
H         56.17581       46.14559       62.02285
H         57.61689       49.00081       64.00420
H         56.81596       48.48096       65.49554
N         55.92501       47.17517       59.25753
C         56.44234       46.84191       57.93132
C         55.49640       47.22381       56.80866
O         54.31297       47.40496       57.04736
C         56.69135       45.31681       57.86361
C         57.35680       44.79400       59.11743
C         58.63106       45.23712       59.50154
C         56.67162       43.87758       59.93848
C         59.20596       44.77763       60.69168
C         57.24754       43.42021       61.12465
C         58.51341       43.86983       61.50835
O         59.04988       43.42810       62.66331
H         55.11983       46.63884       59.61156
H         57.40186       47.37594       57.76381
H         57.27929       45.05618       56.95749
H         55.70061       44.81580       57.76924
H         59.17074       45.94686       58.88811
H         55.68278       43.52471       59.67061
H         60.18535       45.13413       60.98242
H         56.70371       42.72227       61.74973
H         59.91825       43.72165       62.97275
N         55.98644       47.32398       55.53518
C         55.21889       47.48514       54.29831
C         54.28527       48.69488       54.20264
O         53.61280       48.79194       53.18472
C         54.54010       46.15281       53.88000
C         53.40952       45.63631       54.77788
C         52.82833       44.37032       54.21179
O         52.88357       43.22628       54.92061
O         52.30372       44.37068       53.10913
H         57.00580       47.22032       55.41455
H         55.96258       47.64059       53.48322
H         55.32676       45.36710       53.82056
H         54.13581       46.28762       52.85160
H         52.60588       46.39728       54.85942
H         53.80358       45.40336       55.78518
N         54.20212       49.67150       55.15661
C         53.27591       50.80416       55.04952
C         53.99300       52.14437       54.97667
O         53.30540       53.14748       54.83735
C         52.32926       50.81445       56.26582
C         51.53922       49.51697       56.42337
C         50.53463       49.28260       55.34018
O         50.58882       48.26370       54.67069
O         49.44614       50.06683       55.26280
H         54.80084       49.62254       55.99171
H         52.66074       50.72477       54.12640
H         51.61589       51.66654       56.20574
H         52.94539       50.94745       57.18199
H         50.98014       49.55391       57.38118
H         52.23429       48.65772       56.48126
N         55.35023       52.25832       55.06829
C         56.04094       53.53267       55.02490
H         56.76093       53.53325       54.18099
H         55.34871       54.39125       54.89317
H         56.59592       53.68035       55.97491
H         55.93759       51.42204       55.18667
Ca        47.64502       48.74871       55.39131
O         48.38435       50.19727       51.93895
H         48.90834       50.04641       51.11269
H         47.74907       50.91781       51.69918
O         48.46021       46.65486       53.11783
H         47.97281       46.14059       52.42636
H         48.81847       45.96720       53.73388
O         45.07495       46.62027       53.97383
H         44.76133       46.29362       54.85375
H         44.28183       47.06242       53.57873

Ca 1.0



