%chk=apoCaM-CA-Ng.loop1.water6.frame569.chk
%nprocshared=20
%mem=10GB
%nosave
#b3lyp/svp scf=(tight,noincore,xqc) Test 
#IOP(5/87=12) Density=Current Pop=(MK,readradii) iop(6/33=2) iop(6/42=6)

apoCaM-CA-Ng.loop1.water6.frame569 

   0  1 
C         67.45966       31.72055       73.63733
C         66.41788       32.06878       72.61617
O         66.06391       33.23447       72.52090
H         68.39261       32.28146       73.42160
H         67.09097       32.00207       74.64645
H         67.68619       30.63416       73.63485
N         65.87328       31.10217       71.82134
C         64.82653       31.37843       70.83917
C         63.54723       30.64934       71.20236
O         63.58436       29.73040       72.00629
C         65.30865       31.04915       69.40792
C         65.67533       29.60479       69.14650
O         66.09600       29.28900       68.04532
O         65.54749       28.65435       70.09272
H         66.20091       30.13305       71.93725
H         64.58239       32.46200       70.85738
H         66.20650       31.67140       69.20083
H         64.51759       31.33800       68.68256
N         62.35356       31.07810       70.69473
C         61.08001       30.45608       71.04457
C         60.29961       30.07075       69.79978
O         60.76029       30.30002       68.69282
C         60.27058       31.36924       71.98875
C         59.79493       32.69556       71.37986
C         58.86178       33.39817       72.37610
C         58.31467       34.71772       71.82628
N         57.37588       35.31715       72.77563
H         62.34349       31.90512       70.08061
H         61.25609       29.51906       71.61545
H         60.87999       31.57905       72.89515
H         59.37859       30.80541       72.33285
H         59.22732       32.49909       70.44588
H         60.66708       33.34019       71.13818
H         59.40637       33.59317       73.32608
H         58.00158       32.72537       72.59170
H         57.78809       34.53128       70.86390
H         59.15692       35.41997       71.63994
H         57.02141       36.22034       72.38727
H         56.56354       34.67548       72.92936
H         57.85212       35.50177       73.68847
N         59.08018       29.47233       69.93354
C         58.27519       29.00279       68.81424
C         56.89161       28.62947       69.36449
O         56.58725       27.45142       69.47462
C         59.01905       27.82148       68.13433
C         58.35381       27.28518       66.89851
O         58.85453       26.33556       66.31844
O         57.17772       27.77310       66.46769
H         58.71122       29.32781       70.88343
H         58.14817       29.80979       68.06037
H         59.13646       26.99476       68.86916
H         60.03240       28.14254       67.82152
N         56.00460       29.58025       69.79125
C         56.24594       31.00541       69.63518
C         55.12811       31.86027       70.18895
O         55.40750       32.71360       71.01931
H         55.11309       29.26925       70.20846
H         56.34300       31.23625       68.55297
H         57.19009       31.28503       70.14566
N         53.84202       31.71083       69.75432
C         52.74829       32.58558       70.18239
C         51.71137       31.83718       70.99925
O         51.79382       30.62267       71.12409
C         52.10010       33.28172       68.95860
C         51.39033       32.34027       68.01381
O         50.06402       32.46555       67.81536
O         52.00631       31.48302       67.40186
H         53.64049       30.95124       69.09064
H         53.14719       33.38488       70.84367
H         52.87574       33.84305       68.39481
H         51.35711       34.02322       69.32211
N         50.69652       32.52598       71.60250
C         49.63853       31.88266       72.36383
C         50.10404       31.18517       73.62805
O         49.28022       30.51219       74.23075
H         50.64598       33.54951       71.48750
H         49.14334       31.14063       71.70099
H         48.87659       32.63795       72.65667
N         51.38248       31.28797       74.09990
C         51.86923       30.54572       75.25820
C         53.00155       29.65776       74.80250
O         53.97494       30.15674       74.25370
C         52.34427       31.47970       76.38586
C         51.19674       32.34656       76.90790
O         52.83236       30.69076       77.44354
H         52.05786       31.89540       73.61446
H         51.06334       29.90882       75.68666
H         53.15466       32.13581       75.98871
H         53.52894       31.22052       77.91079
H         50.79921       32.99689       76.10139
H         50.37502       31.70581       77.29582
H         51.56212       32.99142       77.73445
N         52.91421       28.31366       74.98026
C         53.90725       27.36659       74.49793
C         53.23710       26.56552       73.39938
O         53.73690       26.57005       72.28261
C         54.45554       26.49252       75.65934
C         54.90992       27.33679       76.88402
C         55.60082       25.58964       75.16281
C         56.01998       28.35835       76.61394
H         52.07735       27.93907       75.45060
H         54.77413       27.90314       74.05029
H         53.63712       25.83531       76.02721
H         55.25744       26.64878       77.68532
H         54.03226       27.88634       77.28744
H         55.24981       24.92044       74.35020
H         56.44439       26.19420       74.76659
H         55.98002       24.95502       75.99175
H         55.70319       29.10615       75.86210
H         56.24683       28.90436       77.55437
H         56.95071       27.86460       76.27087
N         52.02770       25.96311       73.62005
C         51.21702       25.39776       72.55220
C         50.81619       23.97761       72.88513
O         50.11566       23.75268       73.86281
C         49.95137       26.26488       72.33316
C         50.29559       27.72013       71.98294
O         49.13883       25.71247       71.32630
H         51.60939       25.99441       74.56131
H         51.78509       25.40504       71.59641
H         49.36004       26.28083       73.27526
H         49.67255       25.68443       70.48891
H         50.87597       28.19608       72.80079
H         50.89214       27.76557       71.04718
H         49.36198       28.30388       71.84101
N         51.23643       22.96517       72.08612
C         50.87505       21.56518       72.27292
C         51.82242       20.74556       71.42070
O         52.61801       20.00318       71.98001
C         49.36603       21.33386       71.97034
C         48.96134       19.86734       72.12170
O         49.03166       21.76066       70.67455
H         51.87621       23.21056       71.31377
H         51.07054       21.28366       73.33324
H         48.75590       21.90156       72.71113
H         48.83762       22.73335       70.72668
H         49.17556       19.51054       73.15062
H         47.87203       19.75995       71.92872
H         49.50653       19.23158       71.39301
N         51.86956       20.92245       70.07003
C         52.95846       20.41729       69.24674
C         53.63912       21.58515       68.56993
O         53.06670       22.66420       68.52482
C         52.44801       19.43728       68.18601
C         51.80965       18.20626       68.83117
C         51.37602       17.20100       67.76419
C         50.77410       15.95129       68.41364
N         50.39894       14.96879       67.39918
H         51.16924       21.52496       69.61465
H         53.71631       19.90533       69.88011
H         53.30794       19.10820       67.56109
H         51.70799       19.94542       67.52758
H         50.92690       18.51249       69.43354
H         52.55400       17.72475       69.50302
H         52.26325       16.90602       67.16168
H         50.62557       17.67063       67.09040
H         49.87602       16.23531       69.00656
H         51.52121       15.49658       69.10211
H         51.24282       14.68063       66.85205
H         49.99876       14.12672       67.87177
H         49.68121       15.37314       66.75497
N         54.87642       21.43608       68.02220
C         55.58031       22.51186       67.32889
C         55.76889       23.76739       68.22618
O         54.65252       24.59999       68.07604
C         56.92953       22.03549       66.73014
C         56.78429       20.88088       65.71761
C         55.91506       21.24140       64.54626
O         54.78794       20.54497       64.30456
O         56.22840       22.15854       63.80486
H         55.33172       20.51629       68.11191
H         54.97122       22.83165       66.45535
H         57.62294       21.69548       67.51899
H         57.41207       22.89491       66.21375
H         56.36620       19.98461       66.21988
H         57.79124       20.60602       65.33708
N         55.97047       23.48156       69.65827
C         57.30636       22.97137       69.95944
H         58.09383       23.61061       69.50279
H         57.45537       22.96516       71.06101
H         57.40137       21.91803       69.63731
H         55.88015       24.38989       70.17176
Ca        55.50969       26.46012       67.14509
O         54.92004       28.01348       63.78695
H         54.98997       27.51513       62.93427
H         54.63787       28.92415       63.51973
O         54.94218       29.66086       66.42709
H         54.30493       29.64269       67.18373
H         55.06490       30.62190       66.22456
O         56.18109       25.22231       64.24404
H         55.80750       24.58802       64.90473
H         57.10252       25.39114       64.56146
O         52.31784       27.87389       65.77239
H         51.64636       27.58391       65.10496
H         52.00744       28.76689       66.06590
O         52.89338       27.16538       68.86093
H         52.47455       26.37241       69.28032
H         53.56995       27.46410       69.51847
O         53.15464       24.99536       65.41832
H         52.65523       24.31576       65.93666
H         52.99997       24.75168       64.47136

Ca 1.0



