%chk=apoCaM-CA-Ng.loop3.water7.frame1145.chk
%nprocshared=20
%mem=10GB
%nosave
#b3lyp/svp scf=(tight,noincore,xqc) Test 
#IOP(5/87=12) Density=Current Pop=(MK,readradii) iop(6/33=2) iop(6/42=6)

apoCaM-CA-Ng.loop3.water7.frame1145 

   0  1 
C         53.20191       73.14947       74.52426
C         52.60551       72.25967       73.47632
O         53.19982       72.09859       72.42711
H         54.16903       73.57331       74.17726
H         52.50492       73.98228       74.75115
H         53.38457       72.55980       75.44710
N         51.42834       71.62398       73.70744
C         50.80278       70.71044       72.75374
C         49.39548       71.14971       72.36728
O         48.72442       70.39149       71.68278
C         50.82493       69.27907       73.33700
C         50.04507       69.06429       74.61093
O         50.06532       67.84934       75.19006
O         49.39346       69.95929       75.12526
H         50.97372       71.77546       74.61995
H         51.38776       70.65771       71.80895
H         51.88661       69.01154       73.53199
H         50.43627       68.56987       72.57440
N         48.88587       72.36123       72.74665
C         47.52724       72.81517       72.46345
C         47.26182       72.85979       70.96247
O         46.27337       72.29886       70.51061
C         46.53517       71.93506       73.27172
C         45.07140       72.40730       73.25798
C         44.22617       71.51460       74.18239
C         42.72647       71.85133       74.16197
N         42.45268       73.22260       74.59314
H         49.47926       73.01597       73.27529
H         47.44019       73.85655       72.84567
H         46.87819       71.94831       74.33004
H         46.57869       70.88386       72.91324
H         44.64666       72.35530       72.23640
H         45.03227       73.45886       73.61048
H         44.60801       71.59719       75.22368
H         44.33179       70.45506       73.85925
H         42.20957       71.14548       74.85012
H         42.31700       71.69265       73.13989
H         42.82573       73.90606       73.89654
H         41.41773       73.35665       74.65492
H         42.87480       73.39933       75.53334
N         48.14541       73.46870       70.11319
C         47.95182       73.47313       68.66294
C         48.80259       72.39471       68.02362
O         49.54760       72.65376       67.08769
C         48.14878       74.87718       68.04530
C         49.54215       75.43820       68.17630
O         50.04451       75.77263       69.37885
O         50.20623       75.65069       67.17443
H         49.01993       73.84571       70.50456
H         46.90634       73.17906       68.42581
H         47.43575       75.59515       68.50173
H         47.90252       74.80261       66.96226
N         48.71202       71.12361       68.49780
C         49.43132       70.01347       67.91324
C         49.28370       68.77704       68.78719
O         48.14634       68.39858       69.03168
H         48.10472       70.94266       69.30726
H         50.47043       70.32202       67.74965
H         49.00375       69.80540       66.90854
N         50.32835       68.04474       69.28435
C         51.74565       68.25731       69.00635
C         52.57617       68.11001       70.27951
O         52.39828       67.12071       70.97588
C         52.16181       67.24757       67.92290
C         53.56850       67.48682       67.42970
N         53.78885       67.93799       66.17165
O         54.51654       67.28456       68.17339
H         50.08401       67.18829       69.80785
H         51.93353       69.23940       68.56640
H         51.46221       67.39089       67.06906
H         52.04938       66.20027       68.27567
H         53.00448       68.13162       65.53139
H         54.74820       68.11565       65.84000
N         53.55904       68.99213       70.63544
C         53.94373       70.13413       69.82111
C         55.24604       70.73975       70.28095
O         56.23328       70.01958       70.35647
H         54.10363       68.78713       71.48903
H         53.12031       70.88061       69.79821
H         54.14031       69.79516       68.78540
N         55.33691       72.06878       70.56325
C         56.59561       72.73103       70.89937
C         56.34436       74.13515       71.48649
O         55.19669       74.53325       71.63493
C         57.47989       72.74157       69.61243
C         58.88650       73.23259       69.82670
C         59.34937       74.37533       69.15396
C         59.74124       72.56906       70.72514
C         60.63847       74.85926       69.39242
C         61.02831       73.05752       70.96394
C         61.47927       74.20834       70.30147
O         62.71252       74.69985       70.53464
H         54.48005       72.62865       70.48330
H         57.09381       72.14872       71.70534
H         56.96048       73.35237       68.84192
H         57.57544       71.71562       69.20308
H         58.70761       74.90184       68.45852
H         59.40519       71.68605       71.25417
H         60.97942       75.74830       68.87760
H         61.66981       72.54599       71.67033
H         63.31737       74.28987       71.16925
N         57.38174       74.93427       71.86651
C         57.23911       76.26097       72.46744
C         57.42136       77.33733       71.41324
O         57.99116       77.04770       70.36732
C         58.27260       76.40313       73.63528
C         59.74349       76.47316       73.10571
C         57.97087       77.61874       74.52822
C         60.79727       76.23000       74.18222
H         58.32503       74.58156       71.72947
H         56.20456       76.34793       72.86554
H         58.14876       75.49267       74.26316
H         59.92346       77.45423       72.61302
H         59.94534       75.69927       72.34584
H         58.63733       77.63361       75.41373
H         58.12116       78.56835       73.97624
H         56.92621       77.57283       74.90078
H         61.80613       76.26912       73.71691
H         60.75547       76.98978       74.98503
H         60.65694       75.21649       74.61629
N         56.93506       78.60072       71.59604
C         57.17083       79.65012       70.61011
C         56.28627       80.87632       70.78111
O         55.57887       81.01082       71.76986
C         58.64993       80.08853       70.70226
O         58.90503       80.58531       71.99082
H         56.37931       78.80304       72.44097
H         56.92942       79.24346       69.60267
H         58.86842       80.87542       69.94816
H         59.31883       79.22364       70.50954
H         59.83884       80.91900       71.99118
N         56.31612       81.83288       69.80777
C         55.66447       83.13486       69.86034
C         56.27284       83.96218       70.97656
O         55.56098       84.54945       71.77936
C         54.13466       83.01558       69.92354
H         56.89560       81.65254       68.97253
H         55.91374       83.66431       68.91366
H         53.67264       84.02505       69.88282
H         53.76829       82.43048       69.05342
H         53.80068       82.51603       70.85553
N         57.63308       84.00228       71.08758
C         58.38066       84.72010       72.10921
C         57.89587       84.40113       73.51527
O         57.85990       85.29028       74.35632
C         58.38940       86.22220       71.80693
H         58.19198       83.44248       70.42540
H         59.43685       84.37506       72.04092
H         59.04109       86.75767       72.52999
H         58.79596       86.39274       70.78678
H         57.36310       86.64138       71.85859
N         57.47115       83.14658       73.83528
C         57.01210       82.79636       75.17067
C         58.20238       82.79111       76.10618
O         58.18728       83.50666       77.09767
C         56.29532       81.42360       75.15165
C         55.68086       81.01398       76.50729
C         54.54223       81.88554       76.98624
O         53.94895       81.60088       78.16073
O         54.12752       82.82371       76.32369
H         57.44682       82.42729       73.09908
H         56.26786       83.55249       75.49561
H         57.01727       80.64039       74.83797
H         55.47760       81.44652       74.39880
H         56.47636       80.99430       77.28122
H         55.27659       79.98406       76.40545
N         59.29001       82.02034       75.81671
C         60.48603       81.97661       76.63140
H         61.34883       82.33624       76.03142
H         60.40304       82.60759       77.54052
H         60.67922       80.92915       76.94284
H         59.28663       81.44902       74.95799
Ca        52.03992       76.83218       69.44992
O         53.61256       79.34750       68.39558
H         54.37664       79.50069       67.78495
H         52.93262       80.00949       68.11324
O         54.04783       77.34535       71.57044
H         54.06545       78.00000       72.31221
H         53.54498       76.57491       71.93577
O         51.17032       79.12977       71.28928
H         50.22596       78.91144       71.08721
H         51.47225       78.39264       71.87721
O         52.87878       76.82224       66.13444
H         52.38668       77.65764       65.93395
H         52.46564       76.14230       65.54489
O         52.48771       74.05066       69.96027
H         52.44479       74.30132       70.91746
H         51.83184       73.31623       69.86392
O         50.16609       78.59233       67.79119
H         49.32457       78.63444       68.31128
H         50.40985       79.53761       67.63029
O         54.86694       75.99607       68.54965
H         55.36450       75.35295       69.11193
H         55.07578       75.72144       67.62213

Ca 1.0



