%chk=apoCaM-CA-Ng.loop3.water5.frame275.chk
%nprocshared=20
%mem=10GB
%nosave
#b3lyp/svp scf=(tight,noincore,xqc) Test 
#IOP(5/87=12) Density=Current Pop=(MK,readradii) iop(6/33=2) iop(6/42=6)

apoCaM-CA-Ng.loop3.water5.frame275 

   0  1 
C         37.66480       22.42690       10.30402
C         38.24158       21.20234        9.65660
O         37.72951       20.78334        8.63062
H         36.60549       22.23100       10.57584
H         38.21517       22.69397       11.23134
H         37.71209       23.28339        9.60141
N         39.30304       20.56261       10.22335
C         39.88720       19.31373        9.74163
C         38.85727       18.19238        9.81003
O         38.75250       17.39732        8.88517
C         40.51055       19.46658        8.33052
C         41.56559       20.53876        8.24013
O         42.11759       20.74373        7.17141
O         41.91493       21.27521        9.31330
H         39.70739       20.95735       11.08685
H         40.70043       19.03756       10.45015
H         39.71562       19.69949        7.59084
H         40.97925       18.50298        8.03462
N         38.03541       18.09785       10.89742
C         37.01740       17.05997       11.07957
C         35.99001       16.95268        9.95444
O         35.22451       15.99822        9.96667
C         36.33520       17.20692       12.46845
C         35.64481       18.55409       12.81142
C         34.34209       18.86662       12.05840
C         33.70934       20.15455       12.62515
N         32.42177       20.44847       11.99721
H         38.16719       18.79236       11.64564
H         37.55408       16.08530       11.08060
H         37.14547       17.08364       13.22017
H         35.61592       16.37493       12.62954
H         36.34870       19.40404       12.69663
H         35.38376       18.49422       13.89104
H         33.63219       18.02355       12.20034
H         34.53468       19.00257       10.97497
H         34.40069       21.01293       12.46743
H         33.54903       20.03799       13.72088
H         31.75261       19.66281       12.16728
H         32.02730       21.31914       12.42332
H         32.54384       20.59860       10.97009
N         35.91507       17.86180        8.94423
C         34.99653       17.73899        7.82108
C         35.35504       16.51811        6.97329
O         36.51147       16.38032        6.59814
C         35.04147       19.03189        6.98503
C         33.90310       19.04499        6.02227
O         33.80924       18.20197        5.15412
O         32.92742       19.94729        6.14061
H         36.51701       18.69023        8.97884
H         33.96136       17.65260        8.22401
H         36.01659       19.15496        6.46497
H         34.90148       19.89790        7.66901
N         34.41198       15.58589        6.64275
C         34.72741       14.33734        5.95918
C         35.36218       14.46586        4.58386
O         35.93892       13.47832        4.15042
H         33.43974       15.72944        6.94809
H         33.82034       13.69944        5.87204
H         35.44688       13.79221        6.60713
N         35.30530       15.60724        3.83355
C         36.02185       15.76228        2.56699
C         37.01326       16.92295        2.59027
O         37.79606       17.00382        1.65334
C         35.06225       15.88326        1.36090
C         34.27235       17.17061        1.32097
N         34.42721       18.03990        0.29225
O         33.47887       17.42569        2.21254
H         34.73756       16.38128        4.17180
H         36.62616       14.84743        2.38579
H         34.36128       15.02113        1.35307
H         35.67463       15.81343        0.43462
H         35.08855       17.84497       -0.47401
H         33.88547       18.91553        0.25629
N         37.04460       17.86511        3.58615
C         38.02444       18.94187        3.61434
C         37.37946       20.28418        3.38435
O         36.70931       20.44311        2.37361
H         36.35816       17.84199        4.34965
H         38.77326       18.81840        2.80541
H         38.57897       18.91334        4.57709
N         37.61624       21.33265        4.22569
C         37.12651       22.68095        3.93606
C         35.62387       22.77442        4.04361
O         34.99023       21.86923        4.56418
C         37.81248       23.72317        4.84736
C         39.27792       23.81563        4.49763
C         40.27048       23.37979        5.38954
C         39.65791       24.33424        3.24645
C         41.62018       23.44351        5.02271
C         41.00397       24.40354        2.88657
C         41.98972       23.95263        3.76776
O         43.28433       24.01053        3.39653
H         38.23542       21.18424        5.03788
H         37.38040       22.91338        2.87837
H         37.65772       23.42561        5.90864
H         37.37199       24.73595        4.71631
H         40.00131       22.97493        6.35725
H         38.90884       24.68572        2.54709
H         42.37808       23.09251        5.71046
H         41.27861       24.80263        1.91798
H         43.99852       23.69388        3.96715
N         34.99057       23.85357        3.50043
C         33.54305       24.00819        3.46049
C         33.09210       23.98913        2.00563
O         32.23305       23.18582        1.66794
C         33.08692       25.31936        4.16842
C         33.72301       25.44685        5.57559
C         31.54421       25.34174        4.27557
C         33.36321       26.75214        6.29118
H         35.56761       24.58455        3.05865
H         33.05648       23.16495        3.99760
H         33.42796       26.18658        3.56010
H         34.82885       25.43533        5.47309
H         33.42282       24.58581        6.21150
H         31.18784       24.52072        4.93313
H         31.17429       26.30721        4.67230
H         31.06342       25.20754        3.29460
H         33.65452       27.62569        5.66964
H         32.27970       26.80766        6.51915
H         33.90678       26.80513        7.25705
N         33.63548       24.83635        1.07650
C         33.16699       24.88022       -0.30643
C         31.80075       25.54880       -0.40709
O         31.19099       25.48070       -1.46229
C         34.16842       25.61353       -1.20795
O         35.40703       24.95998       -1.15341
H         34.40407       25.46387        1.35722
H         33.09207       23.83327       -0.68075
H         34.27468       26.66555       -0.85875
H         33.79776       25.60234       -2.25786
H         36.04783       25.53793       -1.64260
N         31.25598       26.19665        0.66749
C         29.91332       26.75433        0.71431
C         28.89840       25.67176        0.40469
O         28.03470       25.87468       -0.44293
C         29.79221       27.98693       -0.19272
H         31.79758       26.27862        1.53328
H         29.73265       27.09933        1.75816
H         28.78584       28.44456       -0.08073
H         30.55118       28.74446        0.09769
H         29.94541       27.72143       -1.25909
N         28.98118       24.46115        1.02719
C         28.08200       23.35251        0.74736
C         27.42298       22.84833        2.01253
O         27.87303       23.18423        3.10288
C         28.87028       22.22442        0.07773
H         29.74796       24.29920        1.69840
H         27.27921       23.68037        0.05187
H         29.68331       21.86881        0.74772
H         28.20711       21.36997       -0.16992
H         29.33135       22.59806       -0.86209
N         26.30852       22.06092        1.93356
C         25.59121       21.48930        3.07635
C         25.05734       22.53867        4.05570
O         24.49643       22.13873        5.06769
C         26.49160       20.48853        3.82498
C         27.03701       19.37103        2.91222
C         28.10852       18.63194        3.64272
O         29.06995       19.39231        4.18460
O         28.10796       17.41709        3.76259
H         25.94258       21.83476        0.99497
H         24.71960       20.91414        2.69523
H         25.94276       20.01632        4.66980
H         27.33247       21.06644        4.26204
H         27.53715       19.83009        2.03401
H         26.22955       18.69851        2.55008
N         25.18462       23.88255        3.85075
C         24.74444       24.85078        4.83061
H         23.65499       24.74482        5.01029
H         25.29818       24.69936        5.78271
H         24.95324       25.87928        4.46580
H         25.60560       24.25473        2.99089
Ca        31.08822       19.27862        5.07449
O         31.13554       16.79655        6.90418
H         30.25141       16.57778        6.51688
H         30.95448       17.51773        7.55780
O         30.72538       19.19559        1.29460
H         29.98205       19.08264        0.65117
H         31.44551       19.61879        0.76360
O         33.21197       20.30236        2.55216
H         33.16039       20.54492        3.50832
H         34.09500       20.63142        2.25294
O         30.71089       21.97073        4.05176
H         29.75591       21.81696        4.25320
H         30.83601       21.58533        3.14929
O         30.79187       16.25675        2.86442
H         30.54077       16.24355        1.90657
H         30.82579       15.30246        3.12580

Ca 1.0



