%chk=apoCaM-CA-Ng.loop2.water3.frame619.chk
%nprocshared=20
%mem=10GB
%nosave
#b3lyp/svp scf=(tight,noincore,xqc) Test 
#IOP(5/87=12) Density=Current Pop=(MK,readradii) iop(6/33=2) iop(6/42=6)

apoCaM-CA-Ng.loop2.water3.frame619 

   -2  1 
C         71.63664      125.92327       83.43914
C         71.87222      127.17619       84.23196
O         70.92002      127.86849       84.56261
H         70.55696      125.79103       83.21400
H         72.19665      125.97218       82.48109
H         71.99089      125.04633       84.02096
N         73.14251      127.53865       84.55868
C         73.45866      128.73496       85.33096
C         72.95982      128.57338       86.75877
O         73.34059      127.61564       87.41569
C         74.98368      128.97853       85.31264
C         75.40966      130.26876       85.96980
O         76.59329      130.56374       85.99393
O         74.51141      131.11426       86.51251
H         73.91584      126.94442       84.21950
H         72.98755      129.61365       84.83420
H         75.31676      129.02581       84.25214
H         75.50426      128.12817       85.80387
N         72.12708      129.49602       87.31398
C         71.61518      129.38775       88.67733
C         70.61451      128.24570       88.77546
O         69.79411      128.13162       87.87498
C         70.91317      130.68802       89.08053
H         71.86669      130.32063       86.75058
H         72.46366      129.27566       89.38178
H         71.63124      131.53414       89.02253
H         70.04878      130.90091       88.41710
H         70.55390      130.61440       90.13013
N         70.51952      127.40343       89.84680
C         71.33255      127.47634       91.05437
C         72.83400      127.13069       90.80357
O         73.12237      126.01583       90.00919
C         70.60464      126.83372       92.29698
C         69.67681      125.62366       92.16049
O         68.49559      125.75157       92.44462
O         70.11010      124.40415       91.80206
H         69.75304      126.71456       89.82257
H         71.39555      128.54275       91.36733
H         69.92060      127.63322       92.66549
H         71.33232      126.66974       93.11852
N         73.65698      127.22962       92.02202
C         74.99037      126.59787       91.97071
C         75.85395      127.03955       90.80089
O         75.39460      127.81810       89.97753
H         73.76516      128.24525       92.25079
H         74.86832      125.49821       91.94624
H         75.51751      126.85553       92.91505
N         77.14209      126.61870       90.63981
C         77.89934      125.77749       91.56369
C         78.51440      124.58922       90.83673
O         79.02920      124.77182       89.74083
C         79.02569      126.65226       92.15839
C         79.95176      125.89455       93.08039
N         79.48815      125.29758       94.20246
O         81.14076      125.82316       92.80693
H         77.65494      126.98760       89.82223
H         77.27750      125.41292       92.40708
H         78.57041      127.49488       92.72336
H         79.62633      127.08657       91.32736
H         78.49137      125.34651       94.45583
H         80.13186      124.78148       94.82059
N         78.64629      123.38125       91.46687
C         79.43724      122.28879       90.91088
C         78.79508      120.91363       90.96491
O         79.45992      119.98146       90.53826
H         78.29672      123.28607       92.43294
H         80.36953      122.21698       91.51373
H         79.73949      122.49957       89.86321
N         77.56571      120.67801       91.51542
C         77.02297      119.32624       91.69192
C         75.65475      119.16227       91.05930
O         74.84632      120.07721       91.10471
C         76.91601      118.98045       93.19118
C         78.29917      118.89269       93.84368
O         76.12770      119.93893       93.84916
H         77.02140      121.46591       91.89051
H         77.69281      118.55944       91.24281
H         76.43771      117.97473       93.27393
H         75.86088      119.54371       94.71925
H         78.19147      118.60274       94.90989
H         78.90973      118.11541       93.33459
H         78.82954      119.86569       93.78737
N         75.30704      117.95454       90.52306
C         73.98096      117.67512       89.98319
C         72.95521      117.68005       91.10559
O         73.01620      116.83136       91.98419
C         73.94360      116.29696       89.24494
C         72.49895      115.94695       88.77508
C         74.91858      116.31800       88.04917
C         72.36805      114.55073       88.16563
H         76.01259      117.20329       90.51747
H         73.73412      118.45737       89.23090
H         74.27086      115.50887       89.96023
H         72.13363      116.70245       88.05014
H         71.80880      115.95535       89.64489
H         74.96410      115.33248       87.54685
H         74.60762      117.08560       87.30967
H         75.95329      116.54859       88.37202
H         72.70383      113.78324       88.89566
H         71.30241      114.35833       87.91836
H         72.95183      114.45447       87.22961
N         71.94719      118.59086       91.08753
C         70.81368      118.58741       91.99820
C         69.48920      118.45244       91.24325
O         68.46828      118.37648       91.91591
C         70.85792      119.84261       92.88825
C         70.92777      121.11879       92.10488
O         72.01089      121.90536       92.23349
O         70.02464      121.44342       91.35060
H         71.97262      119.32092       90.37376
H         70.86854      117.71144       92.68100
H         71.77200      119.77889       93.51892
H         69.98065      119.86838       93.57000
N         69.40312      118.38343       89.87431
C         68.14332      118.09067       89.19727
C         68.16531      118.59193       87.74283
O         68.20992      117.76639       86.83771
C         67.88960      116.56088       89.27227
C         66.44292      116.22290       88.99928
C         66.03991      115.60780       87.80239
C         65.47703      116.51379       89.98019
C         64.68934      115.30255       87.58994
C         64.13440      116.19165       89.77136
C         63.73925      115.59012       88.57511
H         70.25298      118.42852       89.29450
H         67.31120      118.58971       89.73589
H         68.11806      116.16320       90.28478
H         68.58333      116.03822       88.57652
H         66.76325      115.37648       87.03123
H         65.76943      116.97446       90.91622
H         64.37739      114.83968       86.66287
H         63.40181      116.40706       90.53897
H         62.69711      115.34546       88.41402
N         68.11059      119.92298       87.40924
C         68.02940      120.40050       86.03048
C         69.25140      120.13678       85.16571
O         69.18641      120.39246       83.97308
C         67.82884      121.91186       86.17430
C         67.07318      121.99446       87.48365
C         67.85257      120.99958       88.34262
H         67.13131      119.92208       85.57725
H         68.81560      122.39999       86.35101
H         67.34718      122.39917       85.29976
H         66.98959      123.01329       87.91434
H         66.04770      121.59309       87.31053
H         68.82533      121.43109       88.66401
H         67.23660      120.71619       89.21833
N         70.41719      119.68236       85.70496
C         71.60660      119.41278       84.90645
C         71.32931      118.20029       84.05207
O         71.41242      118.29333       82.83416
C         72.84627      119.18379       85.80798
C         73.36486      120.48036       86.46719
C         72.35498      121.16219       87.34227
O         71.94532      122.27359       87.05689
O         71.87617      120.54751       88.43180
H         70.46068      119.52064       86.71639
H         71.84291      120.28446       84.25378
H         73.68185      118.80961       85.17531
H         72.63020      118.41235       86.57355
H         73.67399      121.18311       85.66304
H         74.26318      120.24655       87.07911
N         70.94967      117.02938       84.63089
C         70.61035      115.86025       83.85404
H         69.76143      116.09458       83.17602
H         71.48626      115.53230       83.25659
H         70.30362      115.03563       84.53162
H         70.87149      116.97232       85.65820
Ca        72.13057      124.33801       91.00149
O         75.01252      123.30274       90.67536
H         74.63075      122.56702       90.13524
H         75.04053      122.94898       91.60007
O         69.79761      124.11235       88.74296
H         68.84373      124.37625       88.73390
H         70.03344      124.00696       87.78797
O         73.46670      124.48830       87.69259
H         72.72733      125.11849       87.50169
H         73.81667      124.24133       86.80071

Ca 1.0



