%chk=apoCaM-CA-Ng.loop2.water4.frame704.chk
%nprocshared=20
%mem=10GB
%nosave
#b3lyp/svp scf=(tight,noincore,xqc) Test 
#IOP(5/87=12) Density=Current Pop=(MK,readradii) iop(6/33=2) iop(6/42=6)

apoCaM-CA-Ng.loop2.water4.frame704 

   -2  1 
C          1.45623        5.86746      -15.96090
C          2.89894        5.78173      -16.38511
O          3.46797        6.78792      -16.78300
H          0.83469        5.27890      -16.67251
H          1.31745        5.45306      -14.94155
H          1.09202        6.91699      -15.98126
N          3.53550        4.57746      -16.37741
C          4.83763        4.35384      -17.00166
C          5.99721        4.64165      -16.06748
O          6.07865        4.03248      -15.01259
C          4.94299        2.87917      -17.44024
C          6.19956        2.55455      -18.21422
O          6.46400        1.27354      -18.52640
O          6.98069        3.42653      -18.56363
H          2.99403        3.75852      -16.05813
H          4.90076        4.97100      -17.92585
H          4.07198        2.61797      -18.07812
H          4.91108        2.23984      -16.53132
N          7.01010        5.45647      -16.46872
C          8.22403        5.66051      -15.68638
C          7.92311        6.52162      -14.47063
O          7.06601        7.38786      -14.58230
C          9.28809        6.31967      -16.57483
H          6.94656        5.88439      -17.40520
H          8.63145        4.66909      -15.38767
H          8.95531        7.32137      -16.91757
H         10.25719        6.42070      -16.04676
H          9.45889        5.67934      -17.46926
N          8.58808        6.41613      -13.28211
C          9.76136        5.57244      -13.05306
C          9.41933        4.14935      -12.63474
O          8.25987        3.83458      -12.40358
C         10.73111        6.27958      -12.06889
C         10.19492        6.54993      -10.69449
O          8.98528        6.11147      -10.33244
O         10.87575        7.16274       -9.88743
H          8.33355        7.10875      -12.55976
H         10.32908        5.49145      -13.99695
H         11.00201        7.25807      -12.51478
H         11.65712        5.68276      -11.94757
N         10.42571        3.22925      -12.52615
C         10.24066        1.85410      -12.08587
C          9.40389        1.01702      -13.02266
O          9.07110        1.47953      -14.10465
H         11.38987        3.52881      -12.73064
H          9.76565        1.85953      -11.09456
H         11.23531        1.36252      -11.99256
N          9.02843       -0.25748      -12.70468
C          9.37650       -0.95609      -11.46759
C          8.12464       -1.42367      -10.73060
O          7.17350       -1.86673      -11.36008
C         10.31389       -2.11388      -11.82803
C         10.75713       -2.92202      -10.63310
N         11.44168       -2.35408       -9.61100
O         10.50147       -4.11560      -10.59630
H          8.48502       -0.78594      -13.40633
H          9.94415       -0.30695      -10.77453
H         11.21718       -1.68238      -12.31445
H          9.80725       -2.77644      -12.56188
H         11.67815       -1.35135       -9.61517
H         11.73988       -2.92527       -8.80620
N          8.09996       -1.39399       -9.36564
C          6.95690       -1.76663       -8.54395
C          6.66290       -0.73463       -7.46046
O          5.77933       -0.99254       -6.65507
H          8.96466       -1.13038       -8.87135
H          7.20927       -2.71111       -8.01501
H          6.04852       -1.95487       -9.15877
N          7.36353        0.43782       -7.35498
C          7.19150        1.39408       -6.26180
C          6.22471        2.49270       -6.62152
O          6.26888        3.05522       -7.70640
C          8.52986        2.00419       -5.75308
C          9.20205        1.12865       -4.70289
O          9.41994        2.22046       -6.81073
H          8.04125        0.68544       -8.08689
H          6.73699        0.87698       -5.38828
H          8.30800        2.97559       -5.24341
H         10.04881        2.93274       -6.52189
H         10.21128        1.53547       -4.47839
H          8.60645        1.16321       -3.76362
H          9.29023        0.08301       -5.05615
N          5.33880        2.86934       -5.66002
C          4.34561        3.91154       -5.78889
C          4.96297        5.23333       -5.35569
O          5.43756        5.31873       -4.23104
C          3.15914        3.61422       -4.81983
C          2.00960        4.61710       -5.07882
C          2.64572        2.15906       -4.89141
C          0.81405        4.40850       -4.15906
H          5.39974        2.40386       -4.74307
H          3.95961        3.92420       -6.83151
H          3.54251        3.73818       -3.78173
H          1.66630        4.52268       -6.13079
H          2.37786        5.65181       -4.92788
H          2.06141        1.97297       -5.81339
H          3.45538        1.40714       -4.81952
H          2.01283        1.96451       -3.99873
H          0.35126        3.41594       -4.33701
H          1.14137        4.48659       -3.10199
H          0.04333        5.17595       -4.37231
N          4.95794        6.31479       -6.17521
C          5.45229        7.62789       -5.80469
C          4.35397        8.70063       -5.88800
O          4.68076        9.85437       -5.64713
C          6.61962        7.95715       -6.75475
C          7.60304        6.80938       -6.76499
O          7.71759        5.93738       -7.78756
O          8.27643        6.59927       -5.77227
H          4.63994        6.20900       -7.13142
H          5.83683        7.61844       -4.75983
H          7.13800        8.88761       -6.42490
H          6.21906        8.12550       -7.77577
N          3.03964        8.41499       -6.18551
C          1.99588        9.44145       -6.28949
C          1.22656        9.28850       -7.61449
O          0.01931        9.10111       -7.57680
C          1.09456        9.37045       -5.02195
C          0.21001       10.58697       -4.76973
C          0.76910       11.87912       -4.65866
C         -1.17612       10.43749       -4.57107
C         -0.03957       12.98639       -4.37021
C         -1.97795       11.54791       -4.27106
C         -1.41110       12.82037       -4.17396
H          2.74544        7.43893       -6.30761
H          2.46323       10.44384       -6.27830
H          1.76712        9.31521       -4.13974
H          0.49858        8.42988       -5.03517
H          1.83175       12.03812       -4.78278
H         -1.63740        9.46065       -4.62485
H          0.39735       13.97453       -4.28681
H         -3.04036       11.42292       -4.10383
H         -2.03321       13.67650       -3.93892
N          1.85048        9.37765       -8.83735
C          1.16621        9.33606      -10.13991
C          0.42767        8.04459      -10.50808
O         -0.26233        8.02079      -11.51802
C          2.31283        9.52371      -11.14341
C          3.27940       10.38658      -10.36442
C          3.24497        9.73231       -8.99067
H          0.46089       10.19524      -10.15006
H          2.82895        8.54649      -11.30136
H          2.00097        9.92023      -12.13249
H          4.29633       10.48528      -10.79910
H          2.82293       11.39837      -10.27609
H          3.85519        8.80764       -8.93982
H          3.60687       10.47032       -8.24641
N          0.58163        6.92313       -9.76200
C         -0.09785        5.65240       -9.97839
C         -1.46278        5.75019       -9.34324
O         -2.44457        5.31981       -9.93125
C          0.64297        4.45122       -9.32673
C          2.07641        4.18078       -9.82702
C          3.12698        5.02457       -9.19222
O          4.29812        4.81781       -9.44578
O          2.81208        5.91554       -8.25221
H          1.11162        7.03383       -8.91057
H         -0.16409        5.41687      -11.06652
H          0.05512        3.54778       -9.60012
H          0.63912        4.51278       -8.21769
H          2.12634        4.26502      -10.93214
H          2.35062        3.14727       -9.52941
N         -1.58064        6.38180       -8.13968
C         -2.82582        6.63387       -7.46252
H         -3.67473        6.10253       -7.93488
H         -2.72636        6.31629       -6.40413
H         -3.01856        7.72835       -7.48505
H         -0.74153        6.76846       -7.68934
Ca         6.96935        5.35827       -9.81865
O          5.56100        7.50982      -10.63266
H          5.17194        7.60315      -11.53571
H          4.83182        7.11834      -10.09264
O          9.16023        3.53449       -9.58747
H          8.74924        3.26963       -8.73480
H         10.12777        3.63030       -9.40289
O          5.15142        4.84894      -12.06052
H          4.20245        5.06125      -12.23888
H          5.58681        4.92222      -12.93944
O          6.37252        2.17861      -10.74416
H          5.67497        1.67650      -10.25298
H          6.37403        1.78132      -11.65118

Ca 1.0



