%chk=apoCaM-CA-Ng.loop3.water6.frame1102.chk
%nprocshared=20
%mem=10GB
%nosave
#b3lyp/svp scf=(tight,noincore,xqc) Test 
#IOP(5/87=12) Density=Current Pop=(MK,readradii) iop(6/33=2) iop(6/42=6)

apoCaM-CA-Ng.loop3.water6.frame1102 

   0  1 
C         32.73984      104.71705       46.93524
C         33.45773      105.87841       47.55931
O         32.82807      106.61080       48.30126
H         31.88992      105.08583       46.32369
H         33.41474      104.11778       46.28998
H         32.34374      104.05804       47.73820
N         34.78118      106.10108       47.31721
C         35.55268      107.17866       47.94061
C         36.14689      108.14787       46.92370
O         36.88656      109.03400       47.32909
C         36.65361      106.58262       48.84669
C         37.72679      105.82625       48.10800
O         37.46226      104.80807       47.49009
O         39.00127      106.25854       48.15674
H         35.26824      105.45910       46.67584
H         34.90379      107.78620       48.60368
H         36.18816      105.91296       49.60196
H         37.13625      107.41850       49.39935
N         35.84508      108.06935       45.59648
C         36.38920      108.94645       44.56558
C         36.13464      110.41561       44.88579
O         37.07624      111.19744       44.92863
C         37.89427      108.69007       44.32623
C         38.25693      107.21019       44.15822
C         39.73987      107.08914       43.76854
C         40.28230      105.65414       43.83098
N         40.38767      105.17530       45.21210
H         35.17575      107.35686       45.27497
H         35.86683      108.69890       43.61347
H         38.48625      109.07422       45.18596
H         38.19084      109.25695       43.41493
H         37.63359      106.72538       43.37476
H         38.05742      106.71259       45.12798
H         40.37231      107.71938       44.43096
H         39.84594      107.47367       42.72969
H         41.30359      105.66059       43.38999
H         39.65017      104.96674       43.22707
H         39.44538      105.07312       45.64632
H         40.85409      104.24042       45.21756
H         40.96799      105.83753       45.77850
N         34.87288      110.86188       45.12319
C         34.56300      112.26254       45.39299
C         33.93087      112.48077       46.76114
O         33.58013      113.62038       47.03919
C         33.70015      112.82368       44.24402
C         32.44718      112.03865       43.98821
O         32.28099      111.51508       42.90002
O         31.50408      111.91180       44.94024
H         34.09574      110.18651       45.08616
H         35.48426      112.88490       45.40172
H         34.31850      112.80840       43.31821
H         33.43505      113.88361       44.44556
N         33.78059      111.48424       47.68771
C         33.18411      111.74288       48.99139
C         34.20561      112.25281       49.99146
O         34.93206      113.17379       49.64742
H         34.08934      110.52355       47.47997
H         32.64838      110.84721       49.33616
H         32.39512      112.51793       48.88319
N         34.29756      111.79780       51.27906
C         33.42763      110.78751       51.87431
C         33.92157      109.40388       51.47157
O         35.08251      109.12918       51.74424
C         33.45812      110.91905       53.41561
C         32.42379      110.04622       54.08254
N         31.10326      110.25060       53.85868
O         32.77894      109.16251       54.84749
H         34.97442      112.27595       51.89621
H         32.39172      111.02263       51.57676
H         33.23753      111.97011       53.70357
H         34.47590      110.67383       53.79452
H         30.78249      111.00567       53.23482
H         30.39467      109.66342       54.32210
N         33.18464      108.46591       50.81016
C         31.79008      108.56090       50.40693
C         31.04422      107.28737       50.72499
O         31.59605      106.39586       51.35784
H         33.67991      107.60221       50.53938
H         31.76700      108.66693       49.30311
H         31.25591      109.42056       50.84741
N         29.77776      107.12003       50.25299
C         29.01202      105.89455       50.43108
C         28.66642      105.29503       49.07574
O         28.33347      106.03426       48.15867
C         27.72565      106.19065       51.22779
C         27.01411      104.91556       51.62823
C         25.73510      104.61345       51.13316
C         27.63387      104.01487       52.51436
C         25.09404      103.42733       51.51026
C         26.99062      102.83448       52.89268
C         25.71776      102.53517       52.38986
O         25.08679      101.39769       52.74527
H         29.34384      107.89202       49.72229
H         29.60376      105.15533       51.01181
H         27.06724      106.84877       50.61816
H         27.97772      106.73942       52.16132
H         25.23635      105.28960       50.45079
H         28.61554      104.22781       52.91852
H         24.11076      103.20064       51.11826
H         27.48320      102.15448       53.57672
H         25.48465      100.75728       53.35276
N         28.62417      103.94111       48.92162
C         28.20239      103.26164       47.69259
C         26.89750      103.82378       47.13902
O         25.98197      104.09800       47.90213
C         28.06490      101.71479       47.89392
C         29.45699      101.05142       48.03233
C         27.12700      101.35080       49.07219
C         29.39744       99.52095       48.07888
H         28.86435      103.37163       49.74442
H         28.97009      103.43859       46.90667
H         27.61451      101.30379       46.96174
H         29.98876      101.42256       48.93338
H         30.05809      101.32451       47.13697
H         27.55290      101.65573       50.04974
H         26.13331      101.82571       48.95871
H         26.94625      100.25897       49.11677
H         28.86273       99.12555       47.18839
H         30.42801       99.10876       48.08235
H         28.89203       99.16434       48.99913
N         26.73682      103.94830       45.78533
C         25.49849      104.40459       45.16077
C         25.75390      105.41789       44.04702
O         26.89612      105.68988       43.71056
C         24.74637      103.18194       44.61217
O         25.51656      102.53078       43.63891
H         27.49456      103.61719       45.16798
H         24.84503      104.88698       45.92047
H         23.77298      103.49032       44.17338
H         24.54775      102.48946       45.46208
H         25.03281      101.69174       43.42276
N         24.69071      105.99823       43.41782
C         24.75707      106.94700       42.30912
C         25.36964      106.33466       41.05735
O         26.14633      106.99206       40.37822
C         25.44009      108.25720       42.73085
H         23.74452      105.74674       43.74099
H         23.70638      107.19531       42.03980
H         26.50605      108.08627       42.98713
H         25.39343      109.00045       41.90614
H         24.92454      108.68645       43.61514
N         25.04375      105.06241       40.68795
C         25.51421      104.39994       39.47579
C         27.01988      104.52688       39.29801
O         27.46927      104.93495       38.23364
C         24.74065      104.93134       38.25895
H         24.43686      104.51048       41.31283
H         25.26863      103.31871       39.56577
H         23.65043      104.78396       38.41226
H         24.93422      106.01459       38.10692
H         25.03721      104.38025       37.34041
N         27.86786      104.23439       40.32309
C         29.31014      104.38208       40.18334
C         29.82996      103.32185       39.23462
O         30.43196      103.65482       38.22329
C         30.01667      104.26080       41.55287
C         31.50406      104.66220       41.48612
C         31.63810      106.13563       41.22770
O         32.23319      106.55549       40.24794
O         31.07425      106.99181       42.09845
H         27.47140      103.95082       41.23223
H         29.51478      105.40609       39.79485
H         29.92563      103.22353       41.93593
H         29.51364      104.92388       42.29046
H         32.03899      104.06699       40.71432
H         31.97653      104.45759       42.46978
N         29.61476      102.00556       39.51341
C         30.09030      100.93789       38.66517
H         31.19844      100.96773       38.60640
H         29.78394       99.95836       39.09217
H         29.65408      101.03512       37.64924
H         29.08676      101.74726       40.36097
Ca        31.06296      109.22625       41.89978
O         28.22841      109.06661       40.91320
H         28.51756      108.13502       41.08539
H         28.73866      109.34014       40.11012
O         29.40065      107.27529       44.66083
H         29.17339      106.99361       43.74030
H         28.53105      107.28330       45.13320
O         32.80708      108.09163       44.16890
H         33.03887      107.14170       44.01396
H         32.60568      108.14431       45.13669
O         29.56718      112.08709       41.94084
H         29.30314      112.08443       40.98674
H         29.00483      112.78837       42.35550
O         28.31074      110.20459       44.39320
H         28.29168      110.98341       45.00409
H         27.61293      109.59776       44.74670
O         31.63652      110.35763       39.25306
H         31.85768      111.07988       39.89380
H         32.24625      109.61559       39.49566

Ca 1.0



