%chk=apoCaM-CA-Ng.loop3.water4.frame171.chk
%nprocshared=20
%mem=10GB
%nosave
#b3lyp/svp scf=(tight,noincore,xqc) Test 
#IOP(5/87=12) Density=Current Pop=(MK,readradii) iop(6/33=2) iop(6/42=6)

apoCaM-CA-Ng.loop3.water4.frame171 

   0  1 
C         44.05361       55.01156       21.54842
C         42.69440       54.80758       20.94823
O         42.01095       55.79138       20.71108
H         44.66996       55.63187       20.86381
H         43.95427       55.53679       22.52169
H         44.57341       54.04546       21.71669
N         42.22872       53.55115       20.67984
C         40.92576       53.27047       20.07734
C         39.76537       53.72541       20.95011
O         38.64137       53.71272       20.46538
C         40.81201       53.88126       18.65945
C         41.86996       53.39414       17.70401
O         41.84705       53.77305       16.54541
O         42.82927       52.53217       18.09450
H         42.83041       52.74329       20.90082
H         40.81345       52.17023       19.95244
H         40.84008       54.98686       18.70911
H         39.82779       53.59670       18.22711
N         39.93453       54.07553       22.25960
C         38.83318       54.53087       23.09534
C         39.21344       55.84473       23.73417
O         39.09393       55.98368       24.94618
C         38.50802       53.45312       24.15196
C         38.07259       52.14117       23.48853
C         37.82382       51.04343       24.52853
C         37.46147       49.69535       23.88243
N         36.17675       49.73704       23.18112
H         40.86098       53.99060       22.70296
H         37.92071       54.71336       22.48717
H         37.68632       53.80886       24.81303
H         39.41254       53.27264       24.77568
H         38.87351       51.78725       22.80494
H         37.15378       52.33930       22.89832
H         37.02277       51.35226       25.23474
H         38.76194       50.89684       25.10815
H         37.40268       48.93049       24.68734
H         38.26638       49.38721       23.17786
H         36.21002       50.39662       22.37239
H         35.96395       48.78312       22.81029
H         35.41695       50.01876       23.84224
N         39.73493       56.85650       22.98172
C         40.14927       58.09634       23.61318
C         38.91415       58.92798       23.95067
O         37.84973       58.67694       23.39996
C         41.15025       58.87060       22.72931
C         41.79047       59.96590       23.53007
O         41.49649       61.24814       23.27753
O         42.49857       59.68900       24.48471
H         39.90138       56.71141       21.97438
H         40.69440       57.81569       24.54324
H         40.61661       59.26503       21.84088
H         41.96395       58.20204       22.37086
N         38.98160       59.92762       24.86838
C         37.84724       60.75180       25.24881
C         37.32079       61.57354       24.09417
O         36.11948       61.57127       23.86671
H         39.87355       60.10088       25.35257
H         38.18256       61.45357       26.04179
H         37.03649       60.12034       25.67754
N         38.17275       62.30908       23.32590
C         37.74008       63.18246       22.23564
C         38.20234       62.68109       20.86852
O         38.03014       63.39787       19.89165
C         38.20186       64.63271       22.50685
C         39.69022       64.84512       22.38797
N         40.19355       65.70825       21.47772
O         40.45065       64.24803       23.12610
H         39.17856       62.23512       23.52423
H         36.63011       63.22562       22.19652
H         37.86982       64.93753       23.52323
H         37.69100       65.29845       21.77917
H         39.57774       66.23789       20.84536
H         41.20877       65.84992       21.40874
N         38.72798       61.43328       20.70682
C         39.13235       60.89348       19.42035
C         40.41224       61.51417       18.92419
O         40.44825       62.01739       17.81100
H         38.79167       60.79956       21.51503
H         38.30675       60.99107       18.68034
H         39.34348       59.80923       19.54332
N         41.52487       61.46290       19.70705
C         42.84883       61.90199       19.28499
C         43.31979       63.08398       20.09084
O         42.65266       63.50166       21.02467
C         43.83090       60.72037       19.45563
C         43.57812       59.67195       18.41076
C         43.89411       59.95865       17.07368
C         43.04262       58.41811       18.74087
C         43.67480       59.01071       16.07668
C         42.81405       57.47137       17.73558
C         43.12915       57.76749       16.39974
O         42.91285       56.87154       15.41757
H         41.43706       61.06354       20.65120
H         42.83425       62.25227       18.23031
H         43.71520       60.31066       20.48549
H         44.89238       61.03221       19.35342
H         44.32038       60.91776       16.80663
H         42.79172       58.18082       19.76711
H         43.92812       59.24538       15.05107
H         42.39371       56.51147       17.99260
H         42.52107       56.00582       15.58800
N         44.48618       63.69607       19.73280
C         45.01639       64.86204       20.42360
C         44.03050       66.00568       20.26057
O         43.57038       66.54067       21.25903
C         46.42820       65.28915       19.89515
C         47.45291       64.12739       19.75916
C         47.02304       66.38905       20.80130
C         47.70617       63.33166       21.03950
H         44.99398       63.31677       18.92425
H         45.13991       64.59870       21.49613
H         46.31452       65.71117       18.87225
H         48.41898       64.54529       19.39995
H         47.12521       63.41429       18.97743
H         47.99622       66.73966       20.39813
H         46.36032       67.26439       20.87233
H         47.17212       66.02353       21.83768
H         48.44916       62.53415       20.82801
H         48.11522       63.97434       21.84379
H         46.77043       62.84877       21.38545
N         43.64322       66.41727       19.01376
C         42.68944       67.50319       18.79767
C         43.22648       68.83994       19.28904
O         42.44228       69.75690       19.47048
C         42.32134       67.62512       17.31239
O         41.77806       66.41463       16.85970
H         44.02306       65.91704       18.19420
H         41.76637       67.25758       19.36938
H         43.24542       67.87221       16.73817
H         41.57207       68.43494       17.17174
H         41.84212       66.43200       15.86945
N         44.55846       69.00593       19.53511
C         45.15702       70.19698       20.11930
C         44.56521       70.45026       21.49147
O         44.12044       71.56026       21.77874
C         45.06570       71.39532       19.16865
H         45.20193       68.23679       19.32438
H         46.24160       69.98333       20.26366
H         44.01291       71.69261       18.98822
H         45.61220       72.26144       19.59994
H         45.53755       71.13744       18.19645
N         44.53719       69.44477       22.40464
C         44.04096       69.59717       23.76324
C         44.71937       68.62775       24.71276
O         45.45341       67.74788       24.26558
C         42.51999       69.39655       23.79600
H         44.91376       68.52945       22.11284
H         44.29624       70.62097       24.12032
H         42.01835       70.12243       23.12274
H         42.26339       68.36691       23.46172
H         42.12431       69.54297       24.82325
N         44.57183       68.76769       26.05737
C         45.21316       67.91537       27.05435
C         46.71218       67.83228       26.77217
O         47.25166       66.74074       26.64872
C         44.57741       66.50557       27.06389
C         43.04767       66.50851       27.21237
C         42.55131       65.10989       26.99598
O         42.84137       64.21296       27.77050
O         41.91437       64.83250       25.84556
H         44.00667       69.56090       26.40749
H         45.04929       68.37155       28.05457
H         45.02779       65.89723       27.87949
H         44.82195       66.01257       26.10009
H         42.61552       67.14418       26.40923
H         42.71879       66.91075       28.19417
N         47.43335       68.96758       26.56957
C         48.82188       68.91664       26.16290
H         49.43207       68.41275       26.94053
H         48.91043       68.35533       25.20564
H         49.20842       69.94393       25.99905
H         46.97479       69.88652       26.64998
Ca        41.89775       62.79286       24.87567
O         43.88225       64.82905       23.73806
H         43.89932       65.78144       23.99732
H         43.03044       64.74225       23.24517
O         41.94499       60.40646       27.21674
H         42.85880       60.74731       27.04535
H         41.42995       61.20481       27.49441
O         45.08068       62.65632       26.36970
H         45.82900       62.00904       26.35137
H         44.89997       62.78836       27.33344
O         45.39493       61.53121       23.44862
H         46.30468       61.19441       23.24942
H         44.79568       60.97030       22.89519

Ca 1.0



