%chk=apoCaM-CA-Ng.loop3.water5.frame473.chk
%nprocshared=20
%mem=10GB
%nosave
#b3lyp/svp scf=(tight,noincore,xqc) Test 
#IOP(5/87=12) Density=Current Pop=(MK,readradii) iop(6/33=2) iop(6/42=6)

apoCaM-CA-Ng.loop3.water5.frame473 

   0  1 
C         44.79463       24.57229       15.73732
C         43.79254       23.62084       16.31658
O         43.06413       23.99364       17.22461
H         45.81677       24.15949       15.87349
H         44.59899       24.70984       14.65335
H         44.74039       25.55596       16.24461
N         43.72368       22.34739       15.83857
C         42.83046       21.31473       16.34887
C         43.12129       21.05947       17.82061
O         42.21186       21.07125       18.63935
C         41.35506       21.67647       16.04420
C         40.39830       20.57454       16.40787
O         39.41594       20.80177       17.30110
O         40.49615       19.47585       15.88521
H         44.37107       22.07685       15.08168
H         43.06782       20.37644       15.79908
H         41.24969       21.87228       14.95517
H         41.06716       22.60185       16.58677
N         44.40922       20.86419       18.22474
C         44.79207       20.63267       19.61016
C         45.47376       21.87316       20.14682
O         46.62477       21.82840       20.56118
C         45.69515       19.39121       19.70930
C         44.98832       18.10994       19.24448
C         45.92691       16.89262       19.24146
C         46.45639       16.51863       20.63628
N         47.32236       15.34308       20.56261
H         45.16379       20.92880       17.52382
H         43.89962       20.46708       20.25417
H         46.00080       19.27652       20.77021
H         46.60407       19.55590       19.08874
H         44.63124       18.25218       18.20149
H         44.10495       17.91013       19.88975
H         46.78312       17.09754       18.56190
H         45.36153       16.02670       18.83404
H         45.59893       16.30480       21.31213
H         47.04445       17.35603       21.06719
H         47.66390       15.10894       21.52267
H         46.79176       14.52676       20.18131
H         48.14716       15.54546       19.95154
N         44.76553       23.03177       20.19404
C         45.26638       24.27503       20.75378
C         44.41005       24.62459       21.95799
O         43.21884       24.34377       21.94575
C         45.25462       25.35204       19.65236
C         45.86356       26.64888       20.10374
O         46.89828       27.05195       19.59717
O         45.26310       27.38551       21.05107
H         43.79683       23.02870       19.83770
H         46.32137       24.16253       21.08999
H         44.22355       25.53602       19.28391
H         45.85818       24.96470       18.80120
N         44.96331       25.20648       23.05844
C         44.21147       25.49963       24.26839
C         43.01055       26.36733       23.98487
O         41.90364       25.94285       24.28751
H         45.96498       25.44723       23.04367
H         44.87262       26.01118       24.99903
H         43.87493       24.54270       24.72626
N         43.14849       27.57755       23.36991
C         42.00794       28.41998       23.01719
C         41.81045       28.48251       21.50389
O         41.45608       29.52484       20.97493
C         42.12594       29.79845       23.71006
C         43.32224       30.63198       23.29572
N         43.55660       31.81620       23.90576
O         44.08070       30.25292       22.41589
H         44.09474       27.88935       23.11994
H         41.07430       27.95359       23.39954
H         42.19649       29.61718       24.80502
H         41.20430       30.39004       23.52124
H         42.93254       32.15636       24.65155
H         44.36643       32.39359       23.63405
N         41.94059       27.34502       20.76331
C         41.60204       27.19422       19.35452
C         42.41326       27.97549       18.33378
O         42.17362       27.74341       17.15740
H         42.22769       26.48683       21.24918
H         40.52637       27.43131       19.21370
H         41.74081       26.11993       19.09832
N         43.34851       28.91564       18.65408
C         44.09404       29.64558       17.62732
C         44.79608       30.84300       18.23277
O         45.53618       30.69016       19.19236
C         45.12943       28.73369       16.93604
C         45.94220       29.49904       15.91366
C         45.32891       30.05551       14.77813
C         47.32195       29.68280       16.10516
C         46.08294       30.78873       13.85612
C         48.07243       30.42014       15.18573
C         47.45424       30.97764       14.05785
O         48.16528       31.69605       13.16558
H         43.51279       29.14940       19.64104
H         43.37897       30.02312       16.86304
H         44.63194       27.88033       16.43496
H         45.79981       28.32376       17.71669
H         44.26762       29.92632       14.60854
H         47.81592       29.26676       16.97328
H         45.59939       31.21587       12.98670
H         49.13281       30.56061       15.35404
H         49.11404       31.85535       13.27278
N         44.63038       32.07639       17.67771
C         45.22824       33.27735       18.24500
C         44.54021       33.52161       19.57469
O         45.20391       33.58159       20.59972
C         45.11210       34.48763       17.26274
C         45.84223       34.14789       15.92635
C         45.72055       35.74909       17.90877
C         45.80216       35.25709       14.87316
H         44.04188       32.16155       16.83567
H         46.31845       33.11048       18.40316
H         44.03957       34.69053       17.04686
H         45.37104       33.25941       15.45905
H         46.90660       33.89707       16.12825
H         46.80085       35.59619       18.12005
H         45.60387       36.63410       17.25185
H         45.20097       35.99646       18.85687
H         46.29406       34.89513       13.94454
H         44.75351       35.53205       14.63516
H         46.35879       36.15483       15.20953
N         43.18101       33.57586       19.62519
C         42.42844       33.66647       20.86801
C         42.64638       35.00290       21.53359
O         43.00134       35.02685       22.70365
C         40.91580       33.46154       20.61662
O         40.60071       32.17429       20.13914
H         42.65868       33.48125       18.73984
H         42.74202       32.84870       21.55185
H         40.52391       34.22407       19.91124
H         40.39116       33.57971       21.58998
H         41.38240       31.78925       19.66678
N         42.43318       36.16215       20.84095
C         42.48905       37.49961       21.42484
C         43.84199       37.88065       22.02523
O         43.91924       38.95663       22.60311
C         41.37640       37.63452       22.47786
H         42.16699       36.09592       19.84660
H         42.25900       38.23879       20.62547
H         41.32623       38.67645       22.85870
H         40.39349       37.39009       22.02045
H         41.54353       36.95742       23.34056
N         44.94218       37.07432       21.94903
C         46.18893       37.35530       22.65094
C         47.34892       37.49681       21.69479
O         47.43810       36.74803       20.73177
C         46.47949       36.22283       23.63293
H         44.90156       36.19916       21.41044
H         46.11221       38.28307       23.25994
H         47.41454       36.44090       24.19373
H         45.64629       36.13687       24.36215
H         46.59461       35.25617       23.09884
N         48.31654       38.42340       21.95252
C         49.49651       38.64789       21.12864
C         49.06805       39.12432       19.75578
O         49.43908       38.53271       18.75030
C         50.41514       37.39987       21.07753
C         50.84024       36.92910       22.47684
C         51.76775       35.75016       22.39049
O         53.01126       35.83150       22.90130
O         51.39740       34.71043       21.86810
H         48.22067       39.01388       22.79325
H         50.08560       39.47113       21.59297
H         51.32774       37.65791       20.49501
H         49.90364       36.56338       20.55607
H         49.94676       36.63134       23.06672
H         51.35388       37.75996       23.00706
N         48.24917       40.20576       19.65187
C         47.77818       40.69580       18.37684
H         47.10060       41.56179       18.53348
H         48.63858       41.01980       17.75473
H         47.21535       39.89576       17.84997
H         47.93396       40.68760       20.50808
Ca        46.93264       29.77498       21.50365
O         46.98187       31.01826       24.25795
H         46.81106       30.68813       25.17543
H         46.87407       32.00028       24.32081
O         46.86293       27.91708       23.76688
H         47.51060       27.18739       23.93315
H         46.34840       27.99468       24.60866
O         47.84491       32.60648       21.49732
H         48.06233       33.39491       22.05429
H         47.85201       32.94753       20.56798
O         49.68344       29.01279       22.37444
H         50.35186       29.71484       22.17326
H         49.67201       28.95462       23.36276
O         48.82683       30.32385       19.22442
H         49.23444       31.22488       19.26287
H         49.58528       29.70098       19.35414

Ca 1.0



