%chk=apoCaM-CA-Ng.loop4.water7.frame510.chk
%nprocshared=20
%mem=10GB
%nosave
#b3lyp/svp scf=(tight,noincore,xqc) Test 
#IOP(5/87=12) Density=Current Pop=(MK,readradii) iop(6/33=2) iop(6/42=6)

apoCaM-CA-Ng.loop4.water7.frame510 

   -3  1 
C         96.04624       54.27185       45.02245
C         96.36121       52.82784       45.28271
O         96.65017       52.48886       46.42083
H         95.18008       54.57571       45.64834
H         96.92247       54.90116       45.28159
H         95.78416       54.44573       43.95753
N         96.29896       51.91183       44.26939
C         96.55276       50.47460       44.40418
C         95.49820       49.73756       45.22932
O         95.58583       48.52027       45.31655
C         97.97427       50.20639       44.94763
C         99.01261       50.88012       44.09940
O         99.80863       51.82561       44.63233
O         99.13324       50.58044       42.92288
H         96.06724       52.25043       43.32294
H         96.49202       50.03228       43.38393
H         98.18008       49.11433       44.95879
H         98.06531       50.56805       45.99251
N         94.46902       50.38764       45.84733
C         93.44448       49.71575       46.64899
C         92.59847       48.79259       45.76919
O         92.65470       48.94473       44.55614
C         92.57403       50.78414       47.40556
C         91.78390       51.70831       46.43547
C         93.46830       51.58170       48.38045
C         90.86942       52.70331       47.15104
H         94.41606       51.40288       45.76182
H         93.96586       49.09153       47.40494
H         91.81960       50.27683       48.02518
H         91.13996       51.07612       45.78773
H         92.46053       52.29048       45.77861
H         94.02107       50.88594       49.04412
H         94.21257       52.20719       47.84858
H         92.86292       52.23938       49.03555
H         91.45657       53.42513       47.75456
H         90.30075       53.28630       46.39634
H         90.15044       52.16783       47.80589
N         91.78369       47.80572       46.25271
C         91.67980       47.37836       47.64430
C         92.81457       46.45245       48.04587
O         93.44273       46.71064       49.06396
C         90.26737       46.82771       47.98215
C         89.73747       45.62329       47.24083
O         88.51361       45.15900       47.55574
O         90.36593       45.07192       46.35586
H         91.25199       47.26485       45.55421
H         91.74312       48.24513       48.31614
H         89.53855       47.64991       47.81055
H         90.25012       46.58530       49.06749
N         93.15296       45.36505       47.29868
C         94.18732       44.42928       47.69498
C         93.76962       43.67136       48.93139
O         92.74123       43.00976       48.89829
H         92.68479       45.19472       46.40069
H         95.14779       44.97025       47.84144
H         94.33756       43.68518       46.88303
N         94.53557       43.70036       50.05659
C         94.20061       42.94174       51.25845
C         92.85779       43.35021       51.85165
O         92.14383       42.48147       52.33230
C         95.33882       42.98540       52.30856
C         95.61820       44.33415       52.91558
O         95.96269       45.27603       52.22053
O         95.53789       44.49203       54.25126
H         95.40814       44.24822       50.03543
H         94.12875       41.86908       50.96817
H         96.27376       42.61786       51.83269
H         95.08404       42.28093       53.13089
N         92.45680       44.65296       51.86117
C         91.20680       45.11736       52.45271
C         91.45635       46.05253       53.62259
O         90.50211       46.60192       54.15227
H         93.07405       45.36558       51.44263
H         90.58043       44.27497       52.81644
H         90.63283       45.65559       51.66773
N         92.72146       46.27259       54.08005
C         93.11150       47.16836       55.15558
C         92.81689       48.61159       54.77773
O         92.36773       49.39259       55.60386
C         92.53896       46.69286       56.50978
C         93.23766       47.33842       57.71949
C         92.65673       46.84216       59.01925
N         92.70711       45.53043       59.35201
O         92.14100       47.63948       59.78828
H         93.50228       45.78932       53.62814
H         94.22106       47.08833       55.21871
H         92.70742       45.59603       56.57521
H         91.44357       46.87632       56.54496
H         93.13312       48.44084       57.68331
H         94.32243       47.09569       57.69555
H         93.14568       44.83910       58.72701
H         92.30853       45.20348       60.24464
N         93.04386       49.01950       53.49689
C         92.89514       50.39461       53.03589
C         94.14994       50.88358       52.30187
O         94.19291       52.06032       51.96887
C         91.62684       50.54031       52.14689
C         91.63074       49.58388       50.94420
C         90.35065       50.31706       52.97269
H         93.30496       48.30438       52.80439
H         92.76674       51.07329       53.90884
H         91.58887       51.58577       51.76675
H         90.74621       49.77885       50.30103
H         92.54390       49.72420       50.33888
H         91.58844       48.52323       51.26995
H         90.31069       51.03452       53.82011
H         89.45078       50.48200       52.34231
H         90.31194       49.28433       53.37799
N         95.19732       50.05674       51.99260
C         96.38842       50.51170       51.28700
C         97.19637       51.46236       52.13750
O         97.64588       51.08378       53.21075
C         97.29633       49.32279       50.90214
C         96.72356       48.51510       49.77262
N         96.58536       49.07134       48.54641
O         96.42172       47.34496       49.94771
H         95.15883       49.06003       52.23448
H         96.08585       51.02549       50.34945
H         97.48356       48.69041       51.79866
H         98.27486       49.69152       50.53700
H         96.86308       50.04935       48.37097
H         96.22646       48.51286       47.76254
N         97.46224       52.71215       51.67065
C         98.36728       53.64794       52.33381
C         98.30530       55.03236       51.70342
O         97.61245       55.23009       50.71354
C         99.81615       53.07462       52.33363
C        100.25751       52.51759       50.98837
C        100.40810       53.33159       49.84998
C        100.51771       51.13853       50.87189
C        100.79505       52.76868       48.62458
C        100.89935       50.58190       49.64997
C        101.03699       51.39065       48.52271
O        101.40215       50.83063       47.35228
H         97.02767       52.98311       50.77647
H         98.03048       53.79881       53.38327
H         99.83844       52.24687       53.07267
H        100.55090       53.82017       52.70172
H        100.22757       54.39627       49.90278
H        100.41284       50.48206       51.72660
H        100.90500       53.39886       47.75250
H        101.08383       49.51688       49.57884
H        101.51059       51.34904       46.54462
N         98.99808       56.06118       52.26948
C         98.98390       57.41739       51.74249
C        100.39282       57.77895       51.29487
O        101.27584       57.83665       52.13825
C         98.36645       58.43455       52.74127
C         99.01750       58.59972       54.13055
C         98.84236       57.39930       55.01686
O         97.60605       56.95281       55.31245
O         99.81604       56.83681       55.49174
H         99.57846       55.86426       53.09559
H         98.30556       57.46168       50.87416
H         97.29566       58.17440       52.89439
H         98.38887       59.42978       52.24709
H         98.51106       59.44630       54.64222
H        100.08844       58.86968       54.03315
N        100.73046       57.97717       49.98366
C         99.79717       57.88697       48.85927
C         98.80806       59.04199       48.86396
O         98.93881       59.95432       49.66871
C        100.56131       57.87542       47.51771
C        101.40974       56.60719       47.35859
C        102.13107       56.62435       46.04458
O        103.04073       57.58254       45.78483
O        101.89588       55.77270       45.20429
H        101.72584       58.15989       49.77950
H         99.23686       56.92798       48.92837
H        101.19567       58.78640       47.44387
H         99.83953       57.88691       46.67232
H        100.73440       55.72522       47.40169
H        102.15782       56.51515       48.17319
N         97.77460       59.04913       47.97441
C         96.78813       60.10670       47.89644
H         95.78009       59.68267       48.08696
H         96.97464       60.91702       48.63162
H         96.80525       60.54669       46.87736
H         97.66845       58.26039       47.31901
Ca       101.56469       52.25648       42.14997
O        102.17225       49.61047       43.86488
H        102.93306       49.16964       43.40986
H        101.47805       48.90713       43.92545
O        104.56017       51.51461       42.46735
H        104.90472       52.43805       42.37348
H        104.59975       51.33283       43.43976
O         98.99882       52.71456       40.51133
H         98.31936       52.73053       41.23140
H         98.54475       53.11964       39.73066
O        100.83540       49.79795       40.34038
H         99.87645       49.55424       40.37799
H        100.86315       50.60657       39.76950
O        103.04110       52.84981       45.07276
H        102.52805       53.38170       44.41503
H        103.43942       53.52087       45.68148
O        102.85854       53.12905       39.55073
H        103.42635       52.33071       39.40709
H        103.27958       53.59804       40.31467
O         99.85715       54.96934       42.72006
H         98.87584       54.87687       42.62722
H        100.07501       54.46583       43.54401

Ca 1.0



