%chk=apoCaM-CA-Ng.loop2.water3.frame516.chk
%nprocshared=20
%mem=10GB
%nosave
#b3lyp/svp scf=(tight,noincore,xqc) Test 
#IOP(5/87=12) Density=Current Pop=(MK,readradii) iop(6/33=2) iop(6/42=6)

apoCaM-CA-Ng.loop2.water3.frame516 

   -2  1 
C         72.50904       93.22273       35.78048
C         71.89601       92.69299       34.51502
O         71.53973       93.48580       33.65511
H         73.42369       93.80437       35.54406
H         71.77902       93.88461       36.29386
H         72.78023       92.40112       36.47693
N         71.71029       91.35409       34.34441
C         71.05238       90.78973       33.17174
C         71.88148       91.01543       31.91475
O         73.00673       90.54117       31.84563
C         70.79649       89.28433       33.38770
C         69.98612       88.68939       32.27018
O         68.75200       89.16125       32.00675
O         70.43477       87.76872       31.60681
H         71.99976       90.71968       35.10549
H         70.05695       91.27877       33.07450
H         70.22268       89.14560       34.32993
H         71.76562       88.74725       33.49227
N         71.36509       91.71964       30.86758
C         72.08443       91.94971       29.61619
C         73.35292       92.75650       29.86194
O         73.28087       93.70496       30.62946
C         71.19044       92.70219       28.62531
H         70.40803       92.09396       30.96006
H         72.31434       90.96015       29.17073
H         70.27104       92.11125       28.42557
H         70.90040       93.69523       29.02948
H         71.72362       92.84809       27.66135
N         74.55504       92.48351       29.26509
C         74.72286       91.58456       28.12601
C         75.24945       90.20778       28.48160
O         75.59478       89.94060       29.62208
C         75.54169       92.27317       27.00741
C         76.99100       92.65343       27.24825
O         77.67049       92.49344       28.40678
O         77.59350       93.15457       26.31239
H         75.35315       93.08200       29.52324
H         73.73450       91.40309       27.66227
H         75.00412       93.20174       26.71780
H         75.53743       91.61106       26.11649
N         75.28753       89.25619       27.50481
C         75.78816       87.90621       27.67655
C         74.98477       87.07160       28.65206
O         74.04881       87.57782       29.25574
H         74.95778       89.50327       26.56040
H         76.84948       87.94604       28.00443
H         75.73852       87.40765       26.68546
N         75.28723       85.76196       28.88747
C         76.35028       85.01846       28.21072
C         77.50121       84.71566       29.16478
O         78.47281       84.10678       28.73557
C         75.75541       83.73728       27.57532
C         74.68223       84.00862       26.53524
N         74.08450       82.97760       25.89429
O         74.34921       85.15232       26.26086
H         74.73324       85.25597       29.59764
H         76.80784       85.60729       27.39260
H         75.32026       83.09785       28.37433
H         76.56760       83.16735       27.07482
H         74.34730       82.00346       26.10168
H         73.35653       83.15428       25.18491
N         77.48643       85.14381       30.46064
C         78.58386       84.96524       31.39124
C         79.75906       85.84810       31.05129
O         80.87094       85.34935       30.95879
H         76.66329       85.63652       30.83291
H         78.86896       83.89224       31.46325
H         78.24206       85.29309       32.39563
N         79.57550       87.19097       30.87552
C         80.67110       88.13467       30.65347
C         80.59986       89.26732       31.67999
O         79.59223       89.38984       32.36192
C         80.63253       88.65459       29.20005
C         80.80300       87.49367       28.20564
O         79.41307       89.31084       28.96146
H         78.61301       87.56123       30.89663
H         81.64509       87.62002       30.80661
H         81.47958       89.36285       29.06019
H         79.49134       89.75469       28.07650
H         80.81102       87.87699       27.16400
H         81.76318       86.96601       28.39087
H         79.96950       86.76484       28.29833
N         81.67666       90.08472       31.90026
C         81.70128       91.10479       32.95416
C         82.11050       92.45937       32.39827
O         83.08159       92.55409       31.66227
C         82.63825       90.68360       34.12841
C         82.64191       91.78430       35.23653
C         82.15668       89.33628       34.70361
C         83.49245       91.46120       36.46472
H         82.53972       89.92143       31.36071
H         80.69649       91.20898       33.41620
H         83.67533       90.55366       33.74772
H         81.60348       91.98155       35.57805
H         83.04823       92.72795       34.81513
H         82.16159       88.54920       33.92235
H         82.82805       88.97698       35.50761
H         81.12529       89.43284       35.10833
H         83.46717       92.32321       37.16396
H         83.09002       90.58788       37.01574
H         84.54479       91.27204       36.16870
N         81.46787       93.57216       32.85117
C         81.83290       94.94051       32.51976
C         82.41811       95.61076       33.74916
O         83.51225       96.15077       33.66272
C         80.58542       95.72167       32.05933
C         79.97829       95.14662       30.81635
O         78.71360       94.68390       30.83657
O         80.61772       95.11723       29.77755
H         80.71477       93.44518       33.53842
H         82.59475       94.97471       31.70845
H         80.85929       96.78062       31.85805
H         79.81994       95.71235       32.86391
N         81.72271       95.63469       34.92274
C         82.16293       96.34263       36.12024
C         81.02382       96.31002       37.14326
O         81.20125       95.77085       38.22867
C         83.47184       95.72776       36.69537
C         84.09971       96.63269       37.73315
C         84.61448       97.88267       37.34131
C         84.19644       96.24692       39.08165
C         85.20901       98.73132       38.27812
C         84.78615       97.10492       40.01888
C         85.29233       98.34470       39.61693
H         80.80530       95.16696       34.94677
H         82.35601       97.39916       35.83859
H         84.23928       95.58133       35.90974
H         83.24474       94.72124       37.10810
H         84.56410       98.19648       36.30603
H         83.81075       95.29018       39.41013
H         85.60620       99.68840       37.96423
H         84.85299       96.80978       41.05802
H         85.75140       99.00571       40.34115
N         79.79186       96.83874       36.85450
C         78.65347       96.80071       37.76082
C         78.20496       95.41359       38.19466
O         77.36925       95.33956       39.08484
C         77.52199       97.43306       36.93862
C         78.27177       98.42341       36.08083
C         79.48869       97.60630       35.66269
H         78.93080       97.41011       38.64977
H         77.11105       96.67097       36.23289
H         76.68186       97.84299       37.53741
H         77.69731       98.85326       35.23315
H         78.61007       99.24917       36.74719
H         79.24410       96.90813       34.83611
H         80.29564       98.30959       35.36794
N         78.64501       94.27552       37.57860
C         78.19217       92.95786       37.99286
C         78.88412       92.61023       39.29199
O         78.21128       92.34759       40.27941
C         78.45084       91.85488       36.93635
C         77.59790       91.95117       35.64960
C         78.07871       92.92575       34.60732
O         78.41280       92.50906       33.50961
O         78.07137       94.25185       34.82592
H         79.30949       94.33879       36.79894
H         77.08780       92.96741       38.14247
H         78.11929       90.90962       37.42350
H         79.52559       91.73495       36.68934
H         76.53617       92.16255       35.90299
H         77.62714       90.94498       35.17678
N         80.24413       92.62131       39.36534
C         80.95499       92.33235       40.59031
H         82.04820       92.44455       40.42680
H         80.64302       93.04256       41.38581
H         80.74492       91.29191       40.91520
H         80.79600       92.86710       38.52888
Ca        77.30060       91.80557       30.53141
O         76.22615       90.33706       32.88713
H         75.38451       90.85557       32.93753
H         75.95085       89.43790       32.57820
O         76.03183       93.91644       32.36047
H         76.12321       94.47579       33.17028
H         75.06475       93.72361       32.31631
O         80.65972       91.93059       29.63345
H         81.32043       91.76944       28.91481
H         80.07089       92.63425       29.26852

Ca 1.0



