%chk=apoCaM-CA-Ng.loop3.water2.frame836.chk
%nprocshared=20
%mem=10GB
%nosave
#b3lyp/svp scf=(tight,noincore,xqc) Test 
#IOP(5/87=12) Density=Current Pop=(MK,readradii) iop(6/33=2) iop(6/42=6)

apoCaM-CA-Ng.loop3.water2.frame836 

   0  1 
C         78.58209      -17.01120       65.47712
C         79.77677      -16.99762       64.57138
O         80.59793      -17.90068       64.64548
H         77.66068      -17.06597       64.85730
H         78.60418      -17.89488       66.14957
H         78.55489      -16.08588       66.08776
N         79.90954      -16.00832       63.64543
C         80.96362      -16.01050       62.63190
C         82.34487      -15.81500       63.27472
O         82.39333      -15.39686       64.42414
C         80.59324      -14.96184       61.54225
C         81.15955      -15.25858       60.18258
O         80.42160      -15.52474       59.25295
O         82.46740      -15.19766       59.96484
H         79.17395      -15.28450       63.61288
H         80.92349      -17.00824       62.16329
H         80.83614      -13.93437       61.88663
H         79.49084      -15.00721       61.39685
N         83.50539      -16.13447       62.61912
C         84.84129      -15.97364       63.21363
C         85.66286      -14.90892       62.48011
O         86.57593      -14.35985       63.08022
C         85.54305      -17.34994       63.28088
C         86.85474      -17.36124       64.09000
C         87.40533      -18.79407       64.21223
C         88.65777      -18.85356       65.10088
N         89.13678      -20.23036       65.24097
H         83.43826      -16.54428       61.67870
H         84.72658      -15.60399       64.25612
H         85.72802      -17.72727       62.25094
H         84.83984      -18.05032       63.78391
H         86.64592      -16.97353       65.11104
H         87.61650      -16.71185       63.60787
H         87.64864      -19.18801       63.20094
H         86.62569      -19.44337       64.66773
H         88.41252      -18.45408       66.11028
H         89.46357      -18.22546       64.66094
H         89.97527      -20.24203       65.86599
H         88.39355      -20.82966       65.66907
H         89.40538      -20.61741       64.30731
N         85.35346      -14.52317       61.20826
C         85.94575      -13.39531       60.49780
C         84.85689      -12.34558       60.16764
O         85.16926      -11.35750       59.51899
C         86.72186      -13.92856       59.25920
C         85.82393      -14.54990       58.23344
O         85.02598      -13.84971       57.64086
O         85.78063      -15.87574       58.01850
H         84.63806      -15.04044       60.69991
H         86.69941      -12.88813       61.13823
H         87.45028      -14.68707       59.61840
H         87.29147      -13.10866       58.77177
N         83.57320      -12.46969       60.64314
C         82.50742      -11.48395       60.48598
C         81.87215      -11.36803       59.11080
O         80.93214      -10.59243       59.00174
H         83.33788      -13.25855       61.25814
H         82.87044      -10.48922       60.82162
H         81.67608      -11.77437       61.16527
N         82.30647      -12.06277       58.02150
C         81.72264      -11.90641       56.68798
C         81.40109      -13.24687       56.04049
O         81.75937      -14.29098       56.56783
C         82.72282      -11.14575       55.79374
C         83.02554       -9.77751       56.35168
N         84.28003       -9.45003       56.73942
O         82.12603       -8.95675       56.45697
H         83.11714      -12.67319       58.12369
H         80.77798      -11.32073       56.74124
H         82.31621      -11.01382       54.76806
H         83.65787      -11.74345       55.71465
H         85.05173      -10.12865       56.66484
H         84.48011       -8.51494       57.12399
N         80.73399      -13.26680       54.85066
C         80.49327      -14.45784       54.05229
C         79.72212      -15.54225       54.76864
O         78.81461      -15.24906       55.53370
H         80.40688      -12.37178       54.45507
H         81.46668      -14.86204       53.69858
H         79.91781      -14.16875       53.14606
N         80.00167      -16.84655       54.48310
C         79.31382      -17.99131       55.08021
C         79.60540      -18.11239       56.57034
O         80.31786      -17.28479       57.11559
C         79.70160      -19.27916       54.30527
C         79.09157      -19.26423       52.91908
C         77.69203      -19.32418       52.77822
C         79.88992      -19.19859       51.76524
C         77.10226      -19.31161       51.51303
C         79.29524      -19.18112       50.49634
C         77.90221      -19.23764       50.36594
O         77.34423      -19.22120       49.13820
H         80.72481      -17.03191       53.76993
H         78.21550      -17.84970       54.98772
H         79.32268      -20.19613       54.80005
H         80.81084      -19.36093       54.27158
H         77.05389      -19.38656       53.65102
H         80.96833      -19.15221       51.84506
H         76.02355      -19.36020       51.42725
H         79.91713      -19.12335       49.61202
H         76.38525      -19.25917       49.00872
N         79.02513      -19.11952       57.29178
C         79.06830      -19.28930       58.74470
C         80.48706      -19.45008       59.29205
O         81.28690      -18.53020       59.20388
C         78.29182      -18.14914       59.46367
C         78.29806      -18.29090       61.00951
C         76.85368      -18.02936       58.93176
C         77.63908      -19.55795       61.56063
H         78.44513      -19.80339       56.78386
H         78.50747      -20.22357       58.96237
H         78.78643      -17.19388       59.23301
H         77.79187      -17.40762       61.45568
H         79.34294      -18.27947       61.36276
H         76.28561      -18.96823       59.09278
H         76.32828      -17.19347       59.44055
H         76.85679      -17.80900       57.84357
H         76.56622      -19.60227       61.28772
H         78.15253      -20.47007       61.19668
H         77.71349      -19.55089       62.66860
N         80.84135      -20.60696       59.92251
C         82.14267      -20.80331       60.56854
C         82.49453      -22.26392       60.89367
O         83.56372      -22.46962       61.45373
C         82.19869      -19.97025       61.86582
O         81.26041      -20.44191       62.79951
H         80.12110      -21.33038       59.97032
H         82.93916      -20.45047       59.87615
H         82.04232      -18.89291       61.65157
H         83.20650      -20.03401       62.32823
H         80.45032      -19.87649       62.71812
N         81.69472      -23.32797       60.57833
C         82.03459      -24.70776       60.90729
C         83.30146      -25.15064       60.19752
O         83.53453      -24.68116       59.09186
C         80.89627      -25.62946       60.47945
H         80.80661      -23.19006       60.08974
H         82.15083      -24.77219       62.00796
H         81.17950      -26.67191       60.68139
H         79.97105      -25.37601       61.04090
H         80.69986      -25.53716       59.39052
N         84.20660      -26.01979       60.73983
C         84.10303      -26.69811       62.03261
C         84.50607      -28.16326       61.89062
O         85.55840      -28.40469       61.31440
C         85.06948      -26.02049       63.00328
H         85.07363      -26.17648       60.20068
H         83.09837      -26.61057       62.47876
H         85.01705      -26.51273       63.99811
H         86.11371      -26.07110       62.62693
H         84.78644      -24.95300       63.12490
N         83.81994      -29.21568       62.43147
C         82.60092      -29.13949       63.23032
C         81.41645      -28.76690       62.36991
O         80.69850      -27.84325       62.72596
C         82.34614      -30.49728       63.92817
C         81.15025      -30.44347       64.89464
C         81.00221      -31.73850       65.64050
O         79.97517      -32.39088       65.54460
O         81.99666      -32.17635       66.43708
H         84.24850      -30.14869       62.31422
H         82.74626      -28.39936       64.04947
H         83.25562      -30.74869       64.51822
H         82.18697      -31.30190       63.17628
H         80.21759      -30.22972       64.32833
H         81.30458      -29.63214       65.63842
N         81.15252      -29.45852       61.22369
C         80.04072      -29.16441       60.34162
H         79.40032      -28.34249       60.72438
H         80.43344      -28.86841       59.34522
H         79.41289      -30.07117       60.22352
H         81.78416      -30.22385       60.94353
Ca        83.68444      -16.44045       58.53685
O         83.79311      -16.27475       55.34890
H         83.20636      -16.72554       54.69121
H         84.65857      -16.75046       55.27761
O         83.40828      -19.17874       57.11530
H         84.31763      -19.52378       56.93014
H         82.80561      -19.76631       56.59400

Ca 1.0



