%chk=apoCaM-CA-Ng.loop1.water5.frame1023.chk
%nprocshared=20
%mem=10GB
%nosave
#b3lyp/svp scf=(tight,noincore,xqc) Test 
#IOP(5/87=12) Density=Current Pop=(MK,readradii) iop(6/33=2) iop(6/42=6)

apoCaM-CA-Ng.loop1.water5.frame1023 

   0  1 
C         38.36955       41.02962       67.09087
C         37.65858       42.29297       67.48072
O         37.13465       42.98134       66.61645
H         39.43330       41.08742       67.40426
H         37.89126       40.16294       67.59445
H         38.32815       40.87127       65.99226
N         37.59829       42.65460       68.79132
C         36.91948       43.85826       69.26149
C         37.58296       45.10007       68.70471
O         38.78252       45.26528       68.88150
C         36.94418       43.94104       70.80092
C         36.24293       42.77431       71.43720
O         35.06143       42.56657       71.21048
O         36.91504       41.95729       72.27009
H         38.04695       42.03320       69.48271
H         35.85209       43.82302       68.94657
H         36.43011       44.87244       71.12642
H         37.99659       43.98111       71.15855
N         36.84467       46.04012       68.05116
C         37.41771       47.27671       67.53471
C         38.13719       48.08385       68.61320
O         39.32021       48.32050       68.40936
C         36.36222       48.14859       66.80883
C         36.12710       47.74604       65.33921
C         35.61371       46.32080       65.11576
C         35.36813       46.08385       63.61679
N         34.95735       44.70570       63.35765
H         35.83245       45.87671       67.93664
H         38.19597       47.02161       66.77907
H         36.74759       49.19087       66.74351
H         35.41091       48.18471       67.38099
H         37.08383       47.86748       64.78491
H         35.40817       48.46264       64.89753
H         34.66582       46.16391       65.67438
H         36.37611       45.59745       65.47398
H         36.30004       46.29436       63.04515
H         34.57619       46.77980       63.25832
H         35.72014       44.04853       63.64132
H         34.08180       44.48340       63.88383
H         34.77852       44.59132       62.33353
N         37.57904       48.60171       69.74681
C         36.22357       48.40929       70.25417
C         36.27750       48.06077       71.74416
O         37.23085       48.43604       72.41399
C         35.38489       49.69011       70.06452
C         36.01581       50.88580       70.72052
O         35.41202       51.47968       71.76224
O         37.07681       51.32989       70.31112
H         38.20405       49.19475       70.31418
H         35.70832       47.59602       69.70688
H         34.37233       49.52045       70.49417
H         35.25336       49.91451       68.98513
N         35.25611       47.38663       72.34095
C         35.24007       47.04067       73.75614
C         34.03467       47.64836       74.42362
O         33.14246       46.90791       74.80922
H         34.45741       47.08059       71.76464
H         36.15276       47.37582       74.29595
H         35.19596       45.93276       73.83514
N         33.94609       49.00112       74.59428
C         32.78447       49.68895       75.15488
C         31.60395       49.50999       74.21292
O         30.83926       48.57046       74.38344
C         32.46430       49.27443       76.60889
C         33.61322       49.56524       77.53323
O         34.18639       48.56795       78.23272
O         34.02137       50.70833       77.66769
H         34.73894       49.58477       74.28606
H         33.01434       50.77352       75.21270
H         32.20437       48.19816       76.66954
H         31.58174       49.85125       76.96349
N         31.42739       50.31553       73.12596
C         32.26889       51.47817       72.86709
C         31.98603       52.14897       71.54454
O         31.18169       51.65354       70.76862
H         30.65561       50.08567       72.48172
H         33.32880       51.17375       72.86735
H         32.10161       52.21852       73.67863
N         32.60711       53.32561       71.23176
C         32.32095       54.02535       69.98728
C         32.96285       53.26462       68.78165
O         34.25922       53.70954       68.49367
C         32.62746       55.54613       70.09966
C         32.27557       56.30080       68.82267
O         33.97077       55.78141       70.41542
H         33.22444       53.76122       71.93268
H         31.21394       53.99299       69.87181
H         31.98709       55.93414       70.92798
H         34.01358       56.65434       70.88716
H         32.45398       57.38691       68.96983
H         32.91811       55.95204       67.98824
H         31.20898       56.14545       68.55850
N         32.10813       53.38600       67.58677
C         32.47439       52.57247       66.40228
C         33.45032       53.30039       65.49170
O         34.56219       53.60950       65.89707
C         32.98912       51.12087       66.68908
C         32.08147       50.28559       67.62532
C         33.18266       50.36218       65.35525
C         30.64485       50.08335       67.13774
H         31.15244       53.07005       67.87229
H         31.53524       52.44466       65.81889
H         33.98292       51.17790       67.18614
H         32.05133       50.75738       68.62215
H         32.54724       49.28369       67.76222
H         32.24288       50.33838       64.76408
H         33.96277       50.83992       64.72560
H         33.49204       49.31841       65.54913
H         30.61828       49.56224       66.15958
H         30.09997       49.45444       67.87235
H         30.11392       51.05231       67.05410
N         33.12527       53.48313       64.17956
C         34.08352       53.94728       63.18653
C         34.44978       55.41769       63.31325
O         35.32734       55.83495       62.58319
C         33.57406       53.64774       61.75048
C         32.32975       54.46986       61.36866
O         33.29024       52.27480       61.64997
H         32.20615       53.14264       63.86013
H         35.01391       53.34865       63.32198
H         34.39408       53.90060       61.03893
H         33.17014       52.07105       60.68613
H         31.47441       54.25541       62.04063
H         32.55065       55.55710       61.40768
H         32.02507       54.22310       60.32999
N         33.77997       56.27023       64.14922
C         34.05567       57.70709       64.20170
C         35.42406       58.00497       64.81738
O         35.50264       58.29465       66.00167
C         32.91003       58.48425       64.91724
C         31.57481       58.38940       64.14917
O         32.76011       58.06980       66.25273
H         32.99830       55.90021       64.70147
H         34.05507       58.11339       63.16556
H         33.17409       59.56466       64.93080
H         32.12430       57.30880       66.27375
H         30.79587       58.98370       64.67319
H         31.69159       58.79439       63.12201
H         31.22098       57.33914       64.07585
N         36.53940       58.03050       64.02398
C         37.88344       58.42264       64.44100
C         38.51322       57.51826       65.48422
O         37.95784       57.30682       66.55113
C         37.94312       59.89483       64.87484
C         37.60206       60.79959       63.67842
C         37.76552       62.29239       63.96663
C         36.76636       62.80709       65.00853
N         36.87768       64.25702       65.15137
H         36.43156       57.82638       63.02278
H         38.53445       58.36039       63.54002
H         38.98582       60.12583       65.18939
H         37.27352       60.07707       65.73925
H         36.56696       60.60030       63.32612
H         38.30138       60.55505       62.84755
H         37.58749       62.83147       63.01088
H         38.80763       62.50352       64.29447
H         36.95613       62.32708       65.99252
H         35.73315       62.55266       64.68308
H         36.66876       64.72171       64.23745
H         36.18509       64.58441       65.86219
H         37.84121       64.51505       65.46573
N         39.76181       57.03069       65.24532
C         40.55135       56.27123       66.19800
C         40.22526       54.78323       66.14099
O         40.01214       54.21632       67.20109
C         42.04808       56.60122       65.98871
C         42.96649       55.95047       67.03223
C         44.35889       56.50770       66.92596
O         44.57478       57.82136       67.13832
O         45.30090       55.77690       66.66676
H         40.23451       57.32210       64.37519
H         40.34105       56.64514       67.22757
H         42.14068       57.70691       66.08726
H         42.39420       56.32471       64.97187
H         42.97550       54.84907       66.88010
H         42.59593       56.16566       68.05709
N         40.15406       54.04679       64.99235
C         40.28003       54.57673       63.65206
H         41.26878       55.04810       63.50057
H         40.16868       53.75434       62.91417
H         39.46314       55.29955       63.44852
H         39.95401       53.03757       65.07600
Ca        35.66028       53.78356       70.29674
O         38.62143       54.84434       69.74065
H         39.58922       54.80391       69.94482
H         38.43285       54.00447       69.25142
O         36.80872       56.76119       71.16159
H         37.70308       56.96907       71.53148
H         36.62910       57.49056       70.51646
O         36.19603       55.71700       68.00900
H         35.41715       55.86929       67.41769
H         36.71646       55.00765       67.55411
O         35.39845       54.60234       73.28257
H         34.90489       54.21178       74.04660
H         35.01204       55.50674       73.17036
O         38.24821       53.67814       72.51532
H         37.98474       53.75838       73.46604
H         39.14982       54.08506       72.47450

Ca 1.0



