%chk=apoCaM-CA-Ng.loop1.water5.frame635.chk
%nprocshared=20
%mem=10GB
%nosave
#b3lyp/svp scf=(tight,noincore,xqc) Test 
#IOP(5/87=12) Density=Current Pop=(MK,readradii) iop(6/33=2) iop(6/42=6)

apoCaM-CA-Ng.loop1.water5.frame635 

   0  1 
C         -8.28537       20.33327       22.52008
C         -9.77594       20.15724       22.56602
O        -10.43483       20.47767       21.58695
H         -8.03667       21.40275       22.36130
H         -7.80538       19.98980       23.46097
H         -7.87072       19.73793       21.67949
N        -10.37988       19.62222       23.66556
C        -11.81383       19.34488       23.71869
C        -12.68762       20.59591       23.57789
O        -12.19595       21.71496       23.61803
C        -12.17121       18.49055       24.96206
C        -11.80971       19.08746       26.29689
O        -12.04806       18.38094       27.41831
O        -11.28325       20.18359       26.38288
H         -9.78330       19.33747       24.45754
H        -12.04417       18.70846       22.83475
H        -11.62238       17.52707       24.88085
H        -13.25714       18.25867       24.95883
N        -14.00848       20.42890       23.28349
C        -14.93449       21.49892       22.90370
C        -15.35283       22.36039       24.08352
O        -15.74976       21.81477       25.10311
C        -16.21323       20.89129       22.28733
C        -15.93926       20.09913       20.99574
C        -17.24124       19.50704       20.44462
C        -16.99613       18.68930       19.17028
N        -18.24545       18.11287       18.67573
H        -14.34592       19.45695       23.21988
H        -14.47747       22.12754       22.10627
H        -16.90551       21.71855       22.02761
H        -16.70896       20.23311       23.03489
H        -15.23237       19.26637       21.19097
H        -15.48311       20.77545       20.24124
H        -17.95634       20.32678       20.22148
H        -17.68899       18.84256       21.21553
H        -16.27443       17.86997       19.38511
H        -16.56124       19.33962       18.38365
H        -18.05017       17.56564       17.80657
H        -18.65383       17.47230       19.39472
H        -18.92813       18.87313       18.45175
N        -15.37148       23.72411       23.97307
C        -15.82332       24.63216       25.02958
C        -16.96547       25.52690       24.54292
O        -16.78029       26.73384       24.47564
C        -14.62171       25.49236       25.47517
C        -13.58618       24.63475       26.12204
O        -13.85007       24.04400       27.15583
O        -12.37446       24.48627       25.56359
H        -15.04670       24.15046       23.09125
H        -16.19667       24.08214       25.92131
H        -14.93773       26.25916       26.21654
H        -14.19350       26.01507       24.59034
N        -18.19884       25.05998       24.19733
C        -18.64122       23.68121       24.21166
C        -19.02101       23.22066       22.82147
O        -19.59435       22.15119       22.70209
H        -18.89964       25.75369       23.88616
H        -19.54195       23.62779       24.86097
H        -17.89737       22.98617       24.63216
N        -18.70869       23.97006       21.71800
C        -19.11935       23.60227       20.36544
C        -18.43067       24.46118       19.30315
O        -17.69029       25.37874       19.61891
C        -20.66319       23.70729       20.23909
C        -21.21764       25.08460       20.52730
O        -20.41368       26.11316       20.86463
O        -22.42176       25.26967       20.46305
H        -18.15300       24.82278       21.84240
H        -18.79733       22.55849       20.16932
H        -21.14268       22.99708       20.94323
H        -20.98105       23.40806       19.21896
N        -18.64951       24.18660       17.98708
C        -18.07843       24.96223       16.90464
C        -16.57734       24.85922       16.84269
O        -15.91918       25.88846       16.82537
H        -19.27037       23.40691       17.73201
H        -18.39852       26.02428       16.99148
H        -18.47212       24.56767       15.94328
N        -15.96623       23.64597       16.73395
C        -14.53558       23.51313       16.45969
C        -13.64883       24.13447       17.52726
O        -14.10879       24.44676       18.61559
C        -14.13564       22.03459       16.21362
C        -14.27371       21.17088       17.47626
O        -14.93721       21.50948       15.18669
H        -16.56032       22.80295       16.75226
H        -14.35031       24.07418       15.51613
H        -13.06917       22.01050       15.89034
H        -14.49042       20.68409       14.86309
H        -15.31742       21.18302       17.84327
H        -13.98506       20.12221       17.25205
H        -13.60721       21.54101       18.28376
N        -12.33390       24.34311       17.24056
C        -11.37693       24.95940       18.15473
C        -11.80202       26.38958       18.47800
O        -11.67975       26.79630       19.62517
C         -9.92948       24.93250       17.55764
C         -9.46909       23.51522       17.09599
C         -8.90544       25.50930       18.55655
C         -9.55518       22.42031       18.16360
H        -12.01353       24.07037       16.30199
H        -11.34991       24.37004       19.09815
H         -9.90530       25.58147       16.65347
H         -8.42111       23.57895       16.72942
H        -10.07014       23.17617       16.22906
H         -9.14540       26.56157       18.81184
H         -8.88260       24.91961       19.49634
H         -7.88842       25.50528       18.10884
H        -10.60632       22.26764       18.48578
H         -9.19632       21.46235       17.73101
H         -8.92673       22.65980       19.04398
N        -12.37038       27.18291       17.52184
C        -12.82479       28.55113       17.76017
C        -12.42428       29.43016       16.59286
O        -12.78308       29.11881       15.46501
C        -14.36042       28.60862       17.90939
C        -14.83693       27.85943       19.15536
O        -14.76158       29.95216       18.02821
H        -12.54481       26.77740       16.58957
H        -12.39414       28.95578       18.70360
H        -14.81432       28.15067       16.99979
H        -15.59405       30.06134       17.49854
H        -14.39049       28.30817       20.06900
H        -15.94244       27.92003       19.23214
H        -14.55124       26.79519       19.11094
N        -11.71627       30.57291       16.80264
C        -11.36862       31.50959       15.73916
C        -10.42250       32.55992       16.29904
O         -9.29209       32.63058       15.83696
C        -12.64566       32.13521       15.08490
C        -12.30342       33.13154       13.97016
O        -13.44345       32.76560       16.05392
H        -11.41430       30.78399       17.76663
H        -10.81570       30.95255       14.94834
H        -13.23510       31.31627       14.61780
H        -14.35312       32.86573       15.66754
H        -11.73784       33.99851       14.37151
H        -11.70323       32.63382       13.17994
H        -13.23982       33.51310       13.50789
N        -10.81826       33.41207       17.28877
C         -9.95657       34.44808       17.84121
C        -10.01651       34.46813       19.35575
O        -11.08826       34.29123       19.92029
C        -10.32127       35.81552       17.24567
C        -11.72882       36.32934       17.59449
C        -12.09038       37.59623       16.80315
C        -11.14882       38.78412       17.06441
N        -11.54895       39.94310       16.26858
H        -11.78597       33.35989       17.63376
H         -8.90193       34.28317       17.52676
H        -10.23007       35.72873       16.14037
H         -9.56512       36.54711       17.60095
H        -11.80199       36.52940       18.68542
H        -12.48201       35.55843       17.32795
H        -13.12616       37.89169       17.07817
H        -12.07691       37.35171       15.71850
H        -10.10660       38.52106       16.78624
H        -11.17029       39.04713       18.14512
H        -10.88957       40.73221       16.45722
H        -11.50653       39.70665       15.25004
H        -12.51901       40.23873       16.52252
N         -8.90157       34.76411       20.07860
C         -8.91278       34.87372       21.53307
C         -9.30949       33.55406       22.18524
O        -10.27827       33.57021       22.93139
C         -7.56917       35.39417       22.09897
C         -7.23994       36.81268       21.60079
C         -5.97215       37.31888       22.22693
O         -5.88549       37.45416       23.56437
O         -5.01901       37.62241       21.52736
H         -8.02657       34.95258       19.56735
H         -9.67248       35.63826       21.81983
H         -6.72965       34.71522       21.85106
H         -7.65886       35.43282       23.20770
H         -8.06474       37.50799       21.86843
H         -7.12759       36.81535       20.49590
N         -8.66719       32.36340       21.98972
C         -7.54439       32.12529       21.10502
H         -6.68572       31.74412       21.69483
H         -7.83319       31.35871       20.35574
H         -7.21419       33.01586       20.55003
H         -9.02083       31.53885       22.49955
Ca       -11.01597       22.99059       26.54590
O        -13.89193       20.94198       27.76118
H        -14.29434       20.08715       27.46722
H        -13.92604       21.51507       26.95622
O        -12.34038       23.22416       29.53059
H        -12.83594       22.41920       29.82449
H        -11.88213       23.54589       30.34669
O        -10.12400       25.45761       27.67709
H        -10.36573       25.64236       28.61892
H        -10.25497       26.31919       27.20786
O         -9.04882       21.93258       28.54540
H         -9.76744       22.14947       29.19093
H         -9.17074       20.96886       28.35404
O         -8.78070       22.42469       24.77490
H         -9.26892       23.19503       24.38878
H         -8.33663       22.78619       25.58220

Ca 1.0



