%chk=apoCaM-CA-Ng.loop3.water2.frame976.chk
%nprocshared=20
%mem=10GB
%nosave
#b3lyp/svp scf=(tight,noincore,xqc) Test 
#IOP(5/87=12) Density=Current Pop=(MK,readradii) iop(6/33=2) iop(6/42=6)

apoCaM-CA-Ng.loop3.water2.frame976 

   0  1 
C         57.45213       43.32078       68.91191
C         57.44334       44.62381       69.65517
O         56.39034       45.23802       69.75404
H         58.46525       42.86664       68.89964
H         56.75459       42.61129       69.40474
H         57.12469       43.48666       67.86462
N         58.58400       45.10521       70.22597
C         58.61384       46.34918       70.99342
C         58.31258       47.53510       70.06984
O         58.39632       47.37190       68.85942
C         60.00398       46.46807       71.67951
C         60.13921       47.42376       72.83434
O         61.32615       47.51053       73.46379
O         59.19324       48.05949       73.26329
H         59.44572       44.54310       70.14195
H         57.83169       46.25342       71.77548
H         60.77077       46.69635       70.90697
H         60.25593       45.48066       72.12100
N         57.93288       48.74877       70.56384
C         57.65943       49.91627       69.72266
C         58.63816       51.05558       69.98967
O         58.58681       52.04541       69.27256
C         56.18451       50.34941       69.86472
C         55.78191       50.78468       71.28448
C         54.28080       51.10495       71.34526
C         53.79556       51.45881       72.76132
N         54.37308       52.70959       73.25511
H         57.81908       48.84989       71.57672
H         57.80557       49.65062       68.65293
H         55.55179       49.48662       69.56044
H         55.98056       51.18511       69.15888
H         56.38446       51.66986       71.57660
H         55.97372       49.96095       72.00025
H         53.72122       50.19934       71.02193
H         54.03353       51.93286       70.64562
H         54.03420       50.62796       73.46272
H         52.68884       51.56815       72.72788
H         54.14720       53.49196       72.59868
H         53.95826       52.92602       74.19014
H         55.40744       52.62410       73.36940
N         59.58990       50.96394       70.96222
C         60.65723       51.93138       71.16761
C         61.98862       51.24446       70.87872
O         62.71994       51.73093       70.02756
C         60.53384       52.61518       72.55326
C         60.31040       51.72655       73.74939
O         59.17777       51.85625       74.46450
O         61.15454       50.93403       74.11967
H         59.60634       50.13947       71.57253
H         60.58389       52.77093       70.43897
H         59.64288       53.27892       72.49750
H         61.41815       53.26583       72.72694
N         62.33129       50.06975       71.48001
C         63.52485       49.30021       71.15627
C         64.42738       49.08835       72.35357
O         65.39402       48.35083       72.22453
H         61.69249       49.65586       72.16626
H         64.12089       49.77479       70.34802
H         63.18919       48.30556       70.79069
N         64.19276       49.71285       73.54160
C         65.01639       49.56790       74.73662
C         64.15471       49.05521       75.88040
O         62.95755       48.90568       75.69091
C         65.55949       50.96553       75.11457
C         66.37474       51.63980       74.03379
N         66.79392       52.91304       74.21273
O         66.64797       51.05858       72.99399
H         63.40043       50.35907       73.61588
H         65.85633       48.85980       74.56468
H         66.17937       50.90652       76.03361
H         64.68607       51.62268       75.32771
H         66.56066       53.42561       75.07590
H         67.33668       53.39405       73.48039
N         64.67641       48.81782       77.11934
C         63.82636       48.53718       78.27055
C         63.00437       47.27194       78.14889
O         63.26115       46.45679       77.27454
H         65.68977       48.92910       77.27353
H         63.12576       49.39393       78.37421
H         64.43223       48.48229       79.20039
N         61.97221       47.07043       79.02440
C         61.05193       45.92684       79.00119
C         60.13166       45.94450       77.74266
O         60.83530       46.24528       76.58063
C         60.13349       45.99071       80.25300
C         60.87311       45.90773       81.56041
C         60.83539       46.97865       82.46866
C         61.57034       44.73855       81.90213
C         61.48595       46.87929       83.70109
C         62.21705       44.63974       83.13649
C         62.17633       45.70652       84.04061
O         62.79688       45.59147       85.23156
H         61.84211       47.78387       79.75881
H         61.64787       44.98819       79.01651
H         59.40785       45.15730       80.28068
H         59.54971       46.93716       80.20100
H         60.29765       47.88764       82.22749
H         61.59838       43.89818       81.21968
H         61.44565       47.71084       84.39324
H         62.74261       43.72890       83.39303
H         62.78273       46.30172       85.88874
N         59.36267       44.68566       77.59849
C         58.53733       44.50981       76.37868
C         57.66753       45.73993       76.12955
O         58.21594       46.80464       75.89733
C         59.40027       44.09664       75.13940
C         58.54356       43.65829       73.91914
C         60.41806       42.99656       75.50721
C         57.71682       42.38028       74.11734
H         58.69263       44.62383       78.39446
H         57.87654       43.64286       76.59081
H         59.98963       44.96964       74.79561
H         59.22558       43.47556       73.05980
H         57.86019       44.48449       73.63228
H         61.12260       43.35922       76.28522
H         59.91495       42.09019       75.90256
H         61.02545       42.71790       74.61958
H         56.96750       42.49700       74.92448
H         57.17064       42.14974       73.17884
H         58.36841       41.51045       74.34209
N         56.30409       45.67592       76.14400
C         55.47556       46.86663       75.94051
C         54.30111       46.98703       76.91122
O         53.57924       47.96924       76.79558
C         54.95748       46.87861       74.49518
O         56.02631       46.85086       73.58837
H         55.85353       44.75252       76.22295
H         56.08530       47.78528       76.07442
H         54.33501       47.78315       74.30341
H         54.31706       45.99039       74.31508
H         56.42651       47.75975       73.59040
N         54.00383       46.04624       77.85852
C         52.79014       46.13236       78.67498
C         52.80593       47.33625       79.61121
O         53.88362       47.85332       79.87177
C         52.62291       44.85248       79.49842
H         54.60478       45.21694       77.96017
H         51.93682       46.21574       77.96859
H         51.68733       44.87990       80.08060
H         52.58391       43.96991       78.82608
H         53.47346       44.73149       80.20350
N         51.67255       47.88472       80.15340
C         50.30134       47.52347       79.79537
C         49.34358       47.76948       80.96241
O         49.38134       48.86301       81.51021
C         49.85778       48.41149       78.62740
H         51.80090       48.74310       80.71331
H         50.24086       46.48355       79.43427
H         49.89181       49.48634       78.90863
H         50.52284       48.25627       77.75202
H         48.81960       48.15336       78.32479
N         48.38559       46.87873       81.36789
C         48.13958       45.57979       80.74759
C         49.15976       44.52886       81.15913
O         49.13462       43.44871       80.58518
C         46.70483       45.07739       81.05072
C         46.44825       44.72287       82.52849
C         45.02556       44.28508       82.73175
O         44.59050       43.30646       82.14540
O         44.22368       44.96827       83.57098
H         47.73301       47.20676       82.09579
H         48.16783       45.72294       79.64526
H         46.50931       44.17139       80.43440
H         45.98496       45.86310       80.72994
H         46.64238       45.60007       83.17809
H         47.12122       43.89805       82.84617
N         50.05234       44.74811       82.16980
C         51.00710       43.75410       82.61932
H         52.03468       44.16254       82.52807
H         50.81059       43.51365       83.68519
H         50.95054       42.81278       82.03331
H         50.05392       45.64611       82.67314
Ca        60.34762       48.46557       76.28948
O         58.13020       49.03741       78.39936
H         57.90434       48.07407       78.43565
H         59.02596       49.09845       78.81739
O         57.10438       50.01694       75.16736
H         56.26257       50.32119       75.58995
H         57.00410       50.26016       74.21323

Ca 1.0



