%chk=apoCaM-CA-Ng.loop4.water5.frame806.chk
%nprocshared=20
%mem=10GB
%nosave
#b3lyp/svp scf=(tight,noincore,xqc) Test 
#IOP(5/87=12) Density=Current Pop=(MK,readradii) iop(6/33=2) iop(6/42=6)

apoCaM-CA-Ng.loop4.water5.frame806 

   -3  1 
C         -7.54215       99.12138       76.56140
C         -8.78710       99.57519       77.27152
O         -9.16058       98.97292       78.26700
H         -6.66733       99.20907       77.23432
H         -7.65878       98.06639       76.23634
H         -7.33654       99.74247       75.66416
N         -9.47972      100.65023       76.80384
C        -10.71007      101.18463       77.38364
C        -10.47314      101.62813       78.81847
O        -11.23030      101.25248       79.70499
C        -11.87728      100.16831       77.26778
C        -11.89820       99.52765       75.90947
O        -11.70733       98.32427       75.81966
O        -11.97622      100.26206       74.78266
H         -9.11512      101.13865       75.97128
H        -10.98066      102.08173       76.78340
H        -12.84473      100.66655       77.49003
H        -11.73322       99.35457       78.01417
N         -9.37832      102.38045       79.12884
C         -9.02628      102.68674       80.51449
C         -9.81973      103.89315       81.01889
O        -10.26092      104.67171       80.18462
C         -7.48826      102.92571       80.68000
C         -7.00546      104.21336       79.94963
C         -6.70131      101.67707       80.23154
C         -5.53516      104.55294       80.19965
H         -8.72269      102.61160       78.36922
H         -9.27426      101.78052       81.10421
H         -7.28769      103.05812       81.76132
H         -7.59101      105.08063       80.32081
H         -7.16466      104.13503       78.85451
H         -5.62082      101.78225       80.45586
H         -7.05831      100.78164       80.78257
H         -6.81612      101.49326       79.14280
H         -5.29193      105.51465       79.69941
H         -5.34416      104.66335       81.28807
H         -4.86245      103.77907       79.77911
N        -10.00354      104.19506       82.34192
C         -9.71262      103.32019       83.47133
C        -11.00482      103.16744       84.25945
O        -11.39837      104.11458       84.92792
C         -8.58985      103.92230       84.34784
C         -8.18583      103.05703       85.51715
O         -7.21346      103.48407       86.34466
O         -8.71459      101.97536       85.72428
H        -10.45517      105.09769       82.56184
H         -9.37138      102.32849       83.12513
H         -8.90930      104.91531       84.73126
H         -7.68637      104.08171       83.72547
N        -11.76852      102.04295       84.14855
C        -13.05913      101.89889       84.81531
C        -13.21485      100.60881       85.59373
O        -14.27683      100.42365       86.17112
H        -11.46394      101.30200       83.49904
H        -13.85239      101.90727       84.03811
H        -13.25466      102.74722       85.50578
N        -12.24265       99.65338       85.62485
C        -12.39978       98.36399       86.28831
C        -11.31556       98.16292       87.32712
O        -11.64609       97.88323       88.47179
C        -12.45810       97.21351       85.25481
C        -11.25251       97.05390       84.36648
O        -10.56626       95.89536       84.36704
O        -10.92450       97.94258       83.59753
H        -11.36205       99.82353       85.12621
H        -13.37844       98.30889       86.81776
H        -13.34269       97.37633       84.60121
H        -12.62492       96.26216       85.80527
N         -9.99634       98.31767       87.01748
C         -8.94397       98.11907       87.99521
C         -8.65866       96.65748       88.25879
O         -7.81952       96.38958       89.10421
H         -9.72091       98.62698       86.07503
H         -9.20003       98.65902       88.93299
H         -7.99799       98.55368       87.60577
N         -9.25410       95.65771       87.53702
C         -8.93648       94.23981       87.67467
C         -7.49372       93.91919       87.27552
O         -7.08394       92.78228       87.46494
C         -9.26976       93.71917       89.09464
C        -10.70614       94.04361       89.54623
C        -11.75512       93.51952       88.59645
N        -12.62995       94.36583       88.00286
O        -11.81895       92.32163       88.36421
H         -9.95553       95.89323       86.82505
H         -9.58151       93.66757       86.97081
H         -8.56968       94.14567       89.84241
H         -9.13224       92.61508       89.10800
H        -10.81002       95.14438       89.65486
H        -10.87421       93.59221       90.54730
H        -12.59723       95.37793       88.19091
H        -13.34741       94.01046       87.35397
N         -6.68425       94.84393       86.67023
C         -5.29697       94.58041       86.28612
C         -5.10160       94.58631       84.77647
O         -3.99633       94.28334       84.34566
C         -4.33759       95.63244       86.92655
C         -4.61199       97.07115       86.43373
C         -4.39276       95.58892       88.45653
H         -7.06556       95.77019       86.44481
H         -4.99434       93.56833       86.63351
H         -3.29629       95.37468       86.63006
H         -4.52729       97.13547       85.32851
H         -5.61944       97.42692       86.73217
H         -3.86664       97.77257       86.86381
H         -5.40116       95.85773       88.82368
H         -4.13543       94.57319       88.82139
H         -3.66349       96.31027       88.88412
N         -6.08665       94.97445       83.91528
C         -5.87461       95.12458       82.48173
C         -6.89214       94.30211       81.70151
O         -7.80548       93.74658       82.29905
C         -5.93205       96.63887       82.19208
C         -5.71100       97.03422       80.76114
N         -6.64773       97.75481       80.10497
O         -4.67068       96.72974       80.19642
H         -7.00687       95.25866       84.27982
H         -4.86622       94.75062       82.19675
H         -5.13613       97.13032       82.79448
H         -6.91004       97.03312       82.54362
H         -7.52141       98.04123       80.57122
H         -6.49250       98.03933       79.13099
N         -6.73568       94.11055       80.35874
C         -7.61458       93.24676       79.56473
C         -6.95925       92.89608       78.22894
O         -6.05331       93.60123       77.80362
C         -9.01499       93.91185       79.41478
C        -10.09082       92.98918       78.88684
C        -10.19303       92.68181       77.51961
C        -11.01902       92.42698       79.78180
C        -11.17921       91.79880       77.06461
C        -12.00283       91.54722       79.32623
C        -12.08200       91.22179       77.96990
O        -13.02636       90.35541       77.55108
H         -5.89980       94.52224       79.92392
H         -7.70304       92.29010       80.12646
H         -8.96825       94.84611       78.81239
H         -9.33460       94.23196       80.42716
H         -9.50734       93.12037       76.80659
H        -10.97164       92.65477       80.83959
H        -11.23830       91.55984       76.01037
H        -12.69878       91.11162       80.03218
H        -13.10486       90.08608       76.62505
N         -7.33584       91.78516       77.52818
C         -6.72024       91.41043       76.25953
C         -7.74673       91.53201       75.15405
O         -8.67062       90.72999       75.13277
C         -6.17349       89.96992       76.30563
C         -5.04035       89.79721       77.32072
C         -4.55692       88.37435       77.32211
O         -5.39660       87.37536       77.65736
O         -3.40262       88.11581       77.02130
H         -8.08920       91.18676       77.89930
H         -5.87173       92.07335       76.04244
H         -5.78188       89.70251       75.29827
H         -7.00413       89.27094       76.55427
H         -5.39238       90.05454       78.34202
H         -4.20414       90.47853       77.04857
N         -7.72082       92.51950       74.21125
C         -6.77561       93.63746       74.16860
C         -5.37890       93.19875       73.77914
O         -5.20179       92.60306       72.72566
C         -7.28117       94.72539       73.19337
C         -8.55995       95.35775       73.76075
C         -9.13282       96.44963       72.91397
O         -9.64324       96.20914       71.83176
O         -9.17773       97.68727       73.43370
H         -8.49197       92.51503       73.52473
H         -6.73613       94.11931       75.17121
H         -7.45317       94.29442       72.18272
H         -6.51566       95.52957       73.10997
H         -8.30867       95.79241       74.75451
H         -9.35488       94.59975       73.91809
N         -4.32419       93.50265       74.58900
C         -2.96233       93.14012       74.26940
H         -2.27943       93.50910       75.06556
H         -2.86810       92.03633       74.20382
H         -2.66240       93.60400       73.30618
H         -4.48702       94.02527       75.46351
Ca       -10.80671       99.21297       73.17070
O         -9.96995       99.66567       70.25226
H        -10.72579       99.72340       69.61538
H         -9.68758       98.71723       70.21825
O        -12.71171       96.26260       73.54223
H        -12.96341       95.88644       74.42275
H        -12.82764       95.50967       72.90979
O        -12.29017      101.47455       71.75114
H        -13.09292      101.87590       72.16914
H        -12.41057      101.62752       70.78049
O        -12.58202       97.59598       70.44384
H        -12.43342       96.64405       70.67056
H        -12.32120       97.66496       69.49126
O        -14.52475       99.16755       72.79379
H        -14.61947       99.46258       71.85326
H        -15.25695       99.63047       73.27354

Ca 1.0



