%chk=apoCaM-CA-Ng.loop4.water2.frame438.chk
%nprocshared=20
%mem=10GB
%nosave
#b3lyp/svp scf=(tight,noincore,xqc) Test 
#IOP(5/87=12) Density=Current Pop=(MK,readradii) iop(6/33=2) iop(6/42=6)

apoCaM-CA-Ng.loop4.water2.frame438 

   -3  1 
C         92.62659       71.14152       78.44078
C         91.75989       70.02967       78.94466
O         92.20939       68.89413       78.95096
H         93.60968       70.74764       78.10191
H         92.13040       71.65476       77.59254
H         92.80359       71.86633       79.26317
N         90.51073       70.29790       79.42795
C         89.62591       69.30072       80.02323
C         90.30591       68.67595       81.22641
O         90.58799       67.49158       81.23317
C         88.98934       68.34624       78.97509
C         89.90779       67.53568       78.10392
O         90.70731       66.59389       78.63200
O         89.89568       67.69858       76.89380
H         90.19152       71.27865       79.43399
H         88.73788       69.82766       80.44088
H         88.36834       68.98280       78.30564
H         88.29677       67.65104       79.49613
N         90.59697       69.49090       82.28513
C         91.24758       69.15122       83.55139
C         90.36026       68.24089       84.40137
O         89.84233       68.72482       85.39870
C         92.71968       68.67794       83.36770
C         93.50168       68.58288       84.70996
C         93.47816       69.58834       82.38217
C         93.73797       69.91822       85.43107
H         90.32740       70.48261       82.18786
H         91.30582       70.11608       84.09974
H         92.70350       67.66936       82.91990
H         94.50781       68.15907       84.50609
H         92.97676       67.88691       85.39778
H         93.46704       70.64700       82.71193
H         94.53033       69.25328       82.27360
H         93.01359       69.54628       81.37970
H         94.32666       70.61652       84.80011
H         92.78635       70.40192       85.72522
H         94.32826       69.73744       86.35350
N         90.11152       66.93669       84.07929
C         89.12225       66.12236       84.77422
C         89.71566       65.30336       85.92534
O         89.13744       65.40666       86.99928
C         88.23906       65.32819       83.78590
C         87.46493       66.23449       82.86343
O         86.60515       67.14116       83.36611
O         87.59023       66.13477       81.65401
H         90.58640       66.50635       83.28030
H         88.38293       66.79655       85.26812
H         87.49923       64.72724       84.35997
H         88.84607       64.65164       83.16588
N         90.84663       64.52644       85.90066
C         91.77615       64.30243       84.80351
C         91.25875       63.33351       83.76412
O         90.12827       62.88868       83.88893
H         91.12598       64.10410       86.80084
H         92.68445       63.82583       85.23042
H         92.08758       65.27273       84.38230
N         92.02152       62.87560       82.72394
C         93.44907       63.12859       82.51813
C         93.88048       64.61384       82.35944
O         92.82640       65.44067       81.97466
C         94.03556       62.24834       81.37070
C         93.29603       62.08570       80.04082
O         92.96425       60.96019       79.70443
O         93.05086       63.09237       79.17530
H         91.56459       62.21454       82.07745
H         93.96932       62.75618       83.42493
H         94.09855       61.21999       81.79207
H         95.08325       62.56620       81.17530
N         94.53700       65.15276       83.55475
C         95.90600       64.64221       83.75561
C         96.32091       64.86918       85.18792
O         95.52778       65.39915       85.95571
H         94.61888       66.18841       83.44640
H         96.61342       65.15104       83.06520
H         95.97394       63.55206       83.56791
N         97.55828       64.49052       85.62666
C         97.98051       64.67771       87.01439
C         98.97431       65.82051       87.16091
O         99.24499       66.20111       88.29187
C         98.38460       63.33276       87.66212
C         99.63914       62.63717       87.10465
C        100.91010       63.35871       87.45459
N        101.25359       63.55763       88.74999
O        101.64821       63.74501       86.56380
H         98.22002       64.07851       84.95121
H         97.10717       65.02192       87.60951
H         97.52786       62.63834       87.51885
H         98.49969       63.47246       88.75800
H         99.54652       62.50121       86.00645
H         99.70926       61.62599       87.56080
H        100.65455       63.21990       89.51610
H        102.12459       64.04333       88.99884
N         99.46498       66.49016       86.07360
C        100.15061       67.77792       86.16745
C        101.58033       67.75407       85.65373
O        102.21654       68.79646       85.72792
C         99.32410       68.86863       85.41654
C         97.93669       69.04740       86.05144
C         99.17203       68.57697       83.91223
H         99.27105       66.12780       85.13185
H        100.22640       68.09637       87.23068
H         99.85638       69.84053       85.51685
H         98.04096       69.32415       87.12187
H         97.38153       69.86158       85.53761
H         97.33750       68.11473       85.97748
H         98.63305       69.41296       83.41918
H        100.16259       68.47062       83.42289
H         98.58792       67.65239       83.73607
N        102.16983       66.63246       85.14686
C        103.55578       66.62313       84.68709
C        103.67984       66.21132       83.22955
O        104.80976       66.17162       82.75866
C        104.39654       65.65991       85.55462
C        104.34106       65.97288       87.02865
N        104.71600       67.17983       87.51003
O        103.96604       65.11005       87.80466
H        101.64088       65.75212       85.10312
H        104.00864       67.63391       84.77230
H        105.46014       65.71288       85.23457
H        104.04263       64.61818       85.39670
H        105.04420       67.92494       86.88072
H        104.67337       67.36916       88.52286
N        102.60599       65.88159       82.44525
C        102.78124       65.35603       81.09109
C        101.48103       65.23787       80.30621
O        100.43387       64.93983       80.86404
C        103.52527       63.98994       81.12494
C        102.91790       63.00536       82.10784
C        103.61718       62.68904       83.28718
C        101.66639       62.40577       81.88252
C        103.06706       61.81810       84.23015
C        101.11793       61.53174       82.82672
C        101.81151       61.23978       84.00511
O        101.26462       60.40405       84.91065
H        101.65024       65.97753       82.81730
H        103.41093       66.07690       80.52239
H        104.57016       64.18858       81.43664
H        103.60476       63.54307       80.11120
H        104.58523       63.13055       83.48858
H        101.11014       62.60394       80.97953
H        103.61611       61.59923       85.13741
H        100.14995       61.08308       82.64256
H        101.70896       60.18561       85.74243
N        101.53237       65.41011       78.95152
C        100.45329       65.21084       77.98491
C         99.30957       66.21006       78.05505
O         98.53365       66.23153       77.10796
C         99.92923       63.76125       77.99874
C        101.05517       62.75163       77.73425
C        100.52262       61.34966       77.71213
O         99.92983       60.83392       78.80598
O        100.63321       60.66670       76.70650
H        102.44901       65.64752       78.54026
H        100.90783       65.38613       76.98203
H         99.16532       63.64737       77.19730
H         99.44062       63.54283       78.97213
H        101.82896       62.82021       78.52636
H        101.53221       62.98490       76.75633
N         99.13405       67.08716       79.08268
C         98.13808       68.14598       79.01987
C         98.72803       69.28257       78.22223
O         98.14216       69.68164       77.22560
C         97.70815       68.60890       80.42816
C         97.08377       67.47458       81.25992
C         95.90518       66.84773       80.57216
O         95.92929       65.66285       80.28071
O         94.82898       67.59084       80.25358
H         99.77765       67.08955       79.88209
H         97.21589       67.78426       78.51041
H         96.95888       69.42470       80.32127
H         98.58029       69.01707       80.98149
H         96.74605       67.88008       82.23712
H         97.85424       66.69734       81.45531
N         99.93108       69.81125       78.58501
C        100.60861       70.85126       77.84216
H        101.58140       70.45826       77.47685
H        100.02079       71.19810       76.96726
H        100.79862       71.71468       78.51165
H        100.41619       69.43576       79.41400
Ca        93.03900       65.19969       79.79826
O         93.49735       66.42025       77.08946
H         93.23650       67.28369       76.68147
H         93.96326       65.93118       76.36574
O         90.26658       64.29924       80.41064
H         89.84999       63.52480       80.86253
H         89.60442       65.02679       80.50820

Ca 1.0



