%chk=apoCaM-CA-Ng.loop1.water3.frame411.chk
%nprocshared=20
%mem=10GB
%nosave
#b3lyp/svp scf=(tight,noincore,xqc) Test 
#IOP(5/87=12) Density=Current Pop=(MK,readradii) iop(6/33=2) iop(6/42=6)

apoCaM-CA-Ng.loop1.water3.frame411 

   0  1 
C         81.07352      103.77351       79.77577
C         79.67204      103.47085       80.22982
O         79.13830      102.43364       79.86400
H         81.76029      102.97198       80.11941
H         81.10581      103.83421       78.66832
H         81.43569      104.74004       80.18826
N         79.01660      104.33799       81.04949
C         77.67184      104.10687       81.57628
C         76.56192      104.22882       80.52681
O         75.41107      104.14910       80.92351
C         77.38186      105.11263       82.71620
C         78.36668      104.97435       83.84524
O         78.47659      103.80646       84.50796
O         79.06362      105.92136       84.17244
H         79.52668      105.17897       81.36235
H         77.62909      103.09166       82.02807
H         76.37191      104.92308       83.14022
H         77.40250      106.14999       82.31375
N         76.79361      104.42183       79.19512
C         75.72968      104.63520       78.21210
C         75.59756      103.46092       77.26169
O         76.61912      103.00351       76.76756
C         76.04956      105.87546       77.34400
C         75.63538      107.22786       77.93032
C         76.21945      107.56371       79.29932
C         75.80488      108.99094       79.68694
N         76.25421      109.32484       81.03468
H         77.75855      104.42849       78.84106
H         74.76638      104.78697       78.71019
H         75.47066      105.81569       76.39535
H         77.12340      105.86503       77.05511
H         74.52725      107.25728       78.01000
H         75.94238      108.00350       77.19499
H         77.32765      107.49079       79.27529
H         75.82012      106.84925       80.04926
H         74.69935      109.09523       79.63972
H         76.24065      109.71071       78.95862
H         75.81049      108.67850       81.72715
H         77.29518      109.25267       81.09432
H         75.96385      110.30528       81.25335
N         74.38673      102.98955       76.81426
C         73.03784      103.41043       77.22433
C         72.80973      104.91994       77.14802
O         72.56161      105.53447       78.17641
C         72.64658      102.83300       78.60189
C         72.61633      101.33737       78.60469
O         72.37069      100.73793       79.63926
O         72.91904      100.64819       77.49087
H         74.42033      102.26975       76.07471
H         72.31653      102.93967       76.53107
H         71.62389      103.17150       78.87317
H         73.36055      103.17383       79.37139
N         72.80105      105.61121       75.97818
C         72.93158      104.97960       74.67806
C         72.62271      105.95243       73.55012
O         72.77303      107.15088       73.74326
H         72.60124      106.62159       76.03831
H         72.15557      104.19318       74.65741
H         73.93555      104.52209       74.54696
N         72.08871      105.55294       72.35795
C         71.85544      104.16590       71.96178
C         70.36905      103.84336       71.93384
O         69.54439      104.73452       72.08443
C         72.55223      103.85348       70.61860
C         72.04090      104.65745       69.44710
O         72.20593      105.99332       69.39983
O         71.51360      104.09023       68.50421
H         71.79897      106.29809       71.70988
H         72.30519      103.47450       72.69833
H         72.41519      102.77325       70.39621
H         73.64366      104.03521       70.72176
N         69.96584      102.54640       71.80872
C         68.57694      102.11398       71.84944
C         67.91374      102.50538       73.15084
O         66.87486      103.14953       73.11949
H         70.68441      101.81240       71.71491
H         68.55046      101.00550       71.76510
H         68.02016      102.53770       70.98549
N         68.49695      102.18452       74.33868
C         67.97190      102.58617       75.64017
C         68.85631      103.68764       76.17516
O         70.06394      103.52750       76.16728
C         67.93815      101.39137       76.61509
C         67.02907      100.27152       76.10138
O         67.45867      101.83694       77.85894
H         69.40558      101.69440       74.31809
H         66.93498      102.98162       75.55208
H         68.97667      100.99800       76.72840
H         67.77735      101.19133       78.54209
H         67.39756       99.88177       75.12957
H         67.01947       99.43418       76.83109
H         65.99005      100.64437       75.97441
N         68.31927      104.84969       76.63680
C         69.11943      106.01099       77.01657
C         69.09809      106.28339       78.52028
O         69.68399      107.27228       78.93760
C         68.69844      107.23483       76.13601
C         67.21367      107.68636       76.24684
C         68.98720      106.91170       74.65608
C         66.79700      108.20705       77.61989
H         67.29350      104.92373       76.69846
H         70.19076      105.83114       76.79553
H         69.34463      108.09859       76.40811
H         66.52343      106.87267       75.94006
H         67.05915      108.52727       75.53509
H         68.35953      106.06502       74.30204
H         68.77402      107.79152       74.01237
H         70.05326      106.64054       74.51823
H         67.45807      109.04415       77.92902
H         65.75334      108.58233       77.56503
H         66.81296      107.40689       78.38239
N         68.47276      105.44262       79.39901
C         68.37545      105.69664       80.84260
C         69.71150      105.70060       81.59695
O         69.69912      106.02456       82.77557
C         67.43041      104.65722       81.50410
C         68.02728      103.23375       81.49651
O         66.19685      104.67032       80.83095
H         67.99312      104.61622       79.01927
H         67.91187      106.70175       80.96126
H         67.26564      104.96377       82.56258
H         65.58691      104.06173       81.32322
H         68.98153      103.20212       82.06381
H         67.32611      102.52698       81.98646
H         68.22054      102.87714       80.46497
N         70.88031      105.32047       81.00655
C         72.18879      105.24104       81.65753
C         72.23724      104.16681       82.73612
O         71.60525      104.31971       83.77205
C         72.67578      106.59361       82.23497
C         72.64408      107.70372       81.18784
O         73.99507      106.43552       82.69703
H         70.85825      105.04833       80.01725
H         72.91265      104.95722       80.86491
H         72.01621      106.89138       83.08248
H         74.13914      107.10305       83.41773
H         73.26638      107.41880       80.31662
H         71.60487      107.88863       80.84773
H         73.03476      108.64530       81.63018
N         73.01067      103.05548       82.55836
C         73.23757      102.04707       83.58838
C         73.90574      100.82854       82.95228
O         73.31346       99.75917       82.97909
C         74.06850      102.66702       84.74578
C         74.21482      101.75280       85.97224
C         74.92601      102.49727       87.11892
C         75.02106      101.63463       88.38593
N         75.67321      102.36668       89.47371
H         73.45873      102.92115       81.64407
H         72.24862      101.72473       83.98616
H         73.55112      103.58426       85.09658
H         75.07202      102.97374       84.37804
H         74.78497      100.83848       85.70094
H         73.20070      101.45669       86.31929
H         74.35316      103.41882       87.36685
H         75.94774      102.79371       86.79472
H         75.59946      100.71075       88.16574
H         73.99778      101.34133       88.71090
H         76.64664      102.63255       89.19886
H         75.12708      103.22736       89.70974
H         75.71691      101.75579       90.32149
N         75.10817      100.93378       82.31009
C         75.74034       99.84114       81.56970
C         77.06098       99.47559       82.20547
O         77.94010      100.31985       82.31001
C         75.91728      100.24397       80.08357
C         76.78592       99.28329       79.23326
C         76.42556       97.81399       79.31921
O         77.24281       97.02938       79.77216
O         75.24277       97.33366       78.88750
H         75.58912      101.84479       82.31791
H         75.09340       98.93757       81.57437
H         76.39695      101.24661       80.01997
H         74.91218      100.33541       79.63570
H         77.83644       99.39512       79.58024
H         76.75877       99.61684       78.17277
N         77.26886       98.19227       82.61730
C         78.51191       97.71440       83.18015
H         79.27611       98.51436       83.25803
H         78.31863       97.29952       84.19068
H         78.91284       96.90558       82.53235
H         76.51435       97.49777       82.50553
Ca        73.78741       98.64652       77.83866
O         70.86569       97.52492       75.05738
H         70.66170       97.36187       74.10227
H         70.17144       98.16638       75.35253
O         70.51775       98.37102       78.17943
H         71.14819       98.22003       78.92773
H         70.06804       97.49769       78.05513
O         72.57332       95.81348       77.58837
H         72.71602       94.90698       77.21723
H         71.98606       95.67183       78.37283

Ca 1.0



