%chk=apoCaM-CA-Ng.loop3.water3.frame743.chk
%nprocshared=20
%mem=10GB
%nosave
#b3lyp/svp scf=(tight,noincore,xqc) Test 
#IOP(5/87=12) Density=Current Pop=(MK,readradii) iop(6/33=2) iop(6/42=6)

apoCaM-CA-Ng.loop3.water3.frame743 

   0  1 
C         97.21384        8.17712       -4.99270
C         98.41003        7.27404       -4.98841
O         98.92402        6.94895       -6.04957
H         96.35755        7.66759       -4.50440
H         97.45309        9.10547       -4.43103
H         96.92974        8.45295       -6.03018
N         98.92801        6.84926       -3.80452
C        100.12640        6.02672       -3.71756
C         99.86868        4.65242       -4.32637
O         99.00865        3.93648       -3.83038
C        100.55706        5.90685       -2.23754
C        101.91784        5.30802       -2.03594
O        102.37374        5.13083       -0.78183
O        102.62526        5.00819       -2.98399
H         98.47406        7.17016       -2.93428
H        100.93818        6.55998       -4.26110
H         99.80127        5.31189       -1.67906
H        100.59943        6.92189       -1.78713
N        100.56440        4.22787       -5.42155
C        100.33066        2.92702       -6.05468
C        100.74047        1.75369       -5.16638
O        100.39899        0.63167       -5.51301
C        101.11869        2.82169       -7.38580
C        100.66617        3.81495       -8.47441
C         99.31188        3.43329       -9.09519
C         98.91368        4.42000      -10.20208
N         97.68051        3.99502      -10.86494
H        101.25842        4.87003       -5.83349
H         99.24323        2.82943       -6.26023
H        101.04703        1.79633       -7.81249
H        102.19090        3.00892       -7.15414
H        101.42077        3.78413       -9.29096
H        100.64185        4.85059       -8.07435
H         98.51249        3.41874       -8.32602
H         99.40150        2.41541       -9.53575
H         99.72493        4.48333      -10.96125
H         98.76871        5.43010       -9.75813
H         97.82818        3.07094      -11.33307
H         96.90140        3.91830      -10.17178
H         97.42129        4.70043      -11.59201
N        101.51819        1.91821       -4.05528
C        101.98769        0.80970       -3.22592
C        101.60669        0.94606       -1.74989
O        101.83579       -0.01095       -1.02099
C        103.51879        0.64203       -3.40460
C        104.29961        1.92762       -3.23618
O        104.20538        2.63599       -2.09832
O        104.99110        2.34207       -4.14999
H        101.85371        2.85765       -3.82313
H        101.51773       -0.14262       -3.55776
H        103.70632        0.26536       -4.43456
H        103.89474       -0.12911       -2.69760
N        101.02924        2.06731       -1.22204
C        100.62576        2.18163        0.17886
C        101.75082        2.06898        1.20808
O        101.43966        2.07980        2.39011
H        100.82002        2.86581       -1.83278
H         99.88327        1.38087        0.38813
H        100.11948        3.15943        0.33227
N        103.05852        1.92506        0.85146
C        104.15428        1.65899        1.77508
C        105.27630        2.67436        1.62056
O        105.72656        2.89674        0.50712
C        104.72972        0.26754        1.43702
C        105.88598       -0.08781        2.34196
N        107.13222       -0.25030        1.83804
O        105.69763       -0.20909        3.54314
H        103.29895        1.92980       -0.13716
H        103.80144        1.63430        2.82968
H        105.06734        0.26561        0.37576
H        103.93989       -0.50762        1.53798
H        107.31618       -0.13394        0.83060
H        107.92246       -0.47559        2.46005
N        105.89536        3.18935        2.72028
C        107.14108        3.93375        2.62859
C        106.95033        5.33499        2.11776
O        106.30777        6.11989        2.80117
H        105.55995        2.91972        3.65732
H        107.85697        3.36254        1.99718
H        107.59702        4.01623        3.63884
N        107.50408        5.73131        0.93415
C        107.44396        7.10732        0.45569
C        106.47251        7.21574       -0.73730
O        105.25286        6.64779       -0.37350
C        108.85193        7.58789        0.04290
C        109.86297        7.55872        1.16271
C        109.70971        8.37855        2.29390
C        110.99391        6.73035        1.06536
C        110.67585        8.37099        3.30666
C        111.95513        6.72194        2.07909
C        111.80341        7.54273        3.20042
O        112.74774        7.53055        4.16288
H        107.98277        5.03223        0.34582
H        107.04996        7.77369        1.25542
H        108.80791        8.63030       -0.33951
H        109.19912        6.94299       -0.79268
H        108.85186        9.03267        2.38637
H        111.13702        6.09348        0.20137
H        110.55126        9.01336        4.16942
H        112.82312        6.08102        1.98806
H        112.68961        8.09082        4.94974
N        106.32415        8.63361       -1.14046
C        105.17760        9.05280       -1.97548
C        105.11285        8.25739       -3.26855
O        104.91256        7.05305       -3.22887
C        103.79544        9.06407       -1.22602
C        102.65139        9.66277       -2.09412
C        103.86592        9.79571        0.12949
C        102.82212       11.13566       -2.49018
H        106.43076        9.29111       -0.33425
H        105.39169       10.11092       -2.23271
H        103.47976        8.02466       -1.01058
H        101.69631        9.57238       -1.53134
H        102.53760        9.06164       -3.01902
H        104.55160        9.27398        0.82785
H        104.21528       10.84209        0.00845
H        102.86690        9.80294        0.61541
H        103.72220       11.28925       -3.11712
H        101.94223       11.45745       -3.08567
H        102.88069       11.78931       -1.59603
N        105.21633        8.89935       -4.46502
C        105.07064        8.24286       -5.75755
C        106.24456        8.54516       -6.68025
O        106.13538        8.24552       -7.86224
C        103.76550        8.74204       -6.39785
O        102.68244        8.41065       -5.57336
H        105.33710        9.92414       -4.46881
H        104.97466        7.14199       -5.65875
H        103.63084        8.24578       -7.38605
H        103.81187        9.84564       -6.53504
H        101.86521        8.68777       -6.06268
N        107.40117        9.12018       -6.23170
C        108.45796        9.56272       -7.13749
C        109.65671        8.62910       -7.11558
O        109.77920        7.85369       -6.17754
C        108.88302       10.97691       -6.72204
H        107.54044        9.26715       -5.22044
H        108.06258        9.59534       -8.16856
H        108.01689       11.66885       -6.77828
H        109.26184       10.96754       -5.67649
H        109.69611       11.37107       -7.35252
N        110.60755        8.62148       -8.10403
C        110.50094        9.33663       -9.38051
C        111.85765        9.48225      -10.05838
O        112.61724        8.52324      -10.05302
C        109.59785        8.55885      -10.34683
H        111.39491        7.96446       -7.98566
H        110.04409       10.32430       -9.23582
H        110.02640        7.55734      -10.56225
H        108.57827        8.41913       -9.94209
H        109.50707        9.11793      -11.30455
N        112.21737       10.58683      -10.77853
C        111.39947       11.78432      -10.95930
C        111.32482       12.56396       -9.66643
O        110.22773       12.88228       -9.22949
C        111.95957       12.67236      -12.09279
C        111.85284       11.95931      -13.45570
C        112.34210       12.82640      -14.57854
O        113.36494       12.41414      -15.35152
O        111.80031       13.89481      -14.81402
H        113.12623       10.54728      -11.26724
H        110.37146       11.50303      -11.28262
H        113.01431       12.95592      -11.88346
H        111.34989       13.60246      -12.14642
H        110.79080       11.69647      -13.65703
H        112.44460       11.02001      -13.44317
N        112.45593       12.88645       -8.98311
C        112.41136       13.57628       -7.71273
H        111.94780       14.57705       -7.83727
H        111.82019       12.98199       -6.98221
H        113.43988       13.70001       -7.31295
H        113.37466       12.60441       -9.35690
Ca       105.08642        4.66234       -1.52744
O        105.84889        4.77017       -5.12715
H        105.06458        4.59820       -5.70657
H        106.61870        4.40697       -5.63240
O        107.65220        3.11780       -1.77860
H        108.50233        3.34831       -2.22986
H        107.74639        2.16256       -1.53571
O        107.90624        6.21844       -3.48169
H        107.78194        6.51907       -4.41640
H        108.45094        6.93301       -3.06822

Ca 1.0



