%chk=apoCaM-CA-Ng.loop2.water3.frame1379.chk
%nprocshared=20
%mem=10GB
%nosave
#b3lyp/svp scf=(tight,noincore,xqc) Test 
#IOP(5/87=12) Density=Current Pop=(MK,readradii) iop(6/33=2) iop(6/42=6)

apoCaM-CA-Ng.loop2.water3.frame1379 

   -2  1 
C          6.93689       49.32423       45.38062
C          8.06123       49.09059       46.36179
O          9.19076       49.02002       45.89990
H          5.93583       49.45257       45.82286
H          7.14935       50.26277       44.82443
H          6.89363       48.48698       44.65467
N          7.90507       49.00601       47.71823
C          6.63755       49.08739       48.44313
C          6.54133       48.09862       49.61044
O          5.52542       48.11725       50.29159
C          6.43011       50.54463       48.89850
C          7.50453       51.03082       49.83031
O          7.64704       50.47625       51.04736
O          8.23953       51.94539       49.49420
H          8.77396       48.99041       48.27516
H          5.78843       48.83090       47.78553
H          5.44290       50.65795       49.39455
H          6.42228       51.18368       47.98713
N          7.53939       47.21497       49.90859
C          7.51039       46.29420       51.04007
C          8.66710       46.57682       51.99587
O          8.90919       45.76608       52.87987
C          7.60387       44.86340       50.49566
H          8.38294       47.17308       49.32105
H          6.56236       46.36764       51.61651
H          7.55930       44.12577       51.32585
H          6.75013       44.66312       49.81358
H          8.55250       44.71562       49.93604
N          9.41560       47.71561       51.88877
C         10.60562       47.99211       52.67570
C         10.37254       49.07578       53.77655
O          9.54761       50.16662       53.46685
C         11.84608       48.15067       51.73009
C         11.70644       48.78610       50.34225
O         11.95044       48.10112       49.36151
O         11.39290       50.07924       50.13796
H          9.15768       48.43079       51.19740
H         10.86490       47.11903       53.31626
H         12.16029       47.10539       51.50870
H         12.69450       48.60554       52.28125
N         11.62591       49.44049       54.46073
C         11.52333       50.57963       55.38658
C         12.06088       51.83953       54.75142
O         12.47503       51.81400       53.60063
H         11.92286       48.59592       55.00316
H         12.16182       50.38020       56.27633
H         10.48260       50.72563       55.75187
N         12.12960       52.98732       55.48012
C         12.65718       54.24335       54.95860
C         13.95301       54.63805       55.65889
O         14.47157       55.70436       55.36906
C         11.60875       55.35689       55.14232
C         10.28350       54.99560       54.52216
N          9.16515       54.92970       55.28199
O         10.21771       54.76178       53.32571
H         11.81045       52.96590       56.46247
H         12.88640       54.15934       53.87204
H         11.97664       56.29567       54.67305
H         11.47212       55.54767       56.22907
H          9.20029       55.12676       56.29304
H          8.25835       54.68324       54.85950
N         14.55022       53.81646       56.57387
C         15.77410       54.20275       57.26280
C         16.34615       53.07871       58.11482
O         15.79736       51.98996       58.13110
H         14.13320       52.90113       56.77267
H         15.55492       55.08873       57.89510
H         16.54729       54.46625       56.50874
N         17.49715       53.23311       58.83135
C         18.25396       54.47118       58.95309
C         19.58303       54.40161       58.21243
O         20.30541       55.38089       58.24898
C         18.47385       54.79145       60.45660
C         17.14549       55.03525       61.17797
O         19.14430       53.73446       61.09776
H         17.86305       52.40057       59.32347
H         17.71372       55.32616       58.49772
H         19.06443       55.73079       60.56446
H         20.10348       53.80344       60.85328
H         17.33653       55.27373       62.24635
H         16.61021       55.89242       60.71722
H         16.49531       54.13590       61.13213
N         19.96569       53.29535       57.50482
C         21.23842       53.20549       56.78626
C         21.24301       54.22295       55.63808
O         20.28969       54.20747       54.87215
C         21.46265       51.75683       56.24099
C         21.36044       50.65619       57.34182
C         22.81584       51.64522       55.51127
C         22.30593       50.83265       58.53467
H         19.33255       52.48979       57.47470
H         22.04577       53.40599       57.51205
H         20.66921       51.53254       55.49322
H         21.55475       49.66578       56.87601
H         20.32950       50.60559       57.74575
H         22.94552       50.62217       55.09862
H         22.86602       52.35508       54.66057
H         23.66262       51.86361       56.19309
H         23.36681       50.83128       58.21562
H         22.08251       51.77139       59.08269
H         22.15733       49.99124       59.24405
N         22.22860       55.15374       55.42713
C         23.49022       55.23290       56.15343
C         24.63498       55.59487       55.21821
O         24.65250       56.70609       54.70415
C         23.39334       56.29760       57.26453
C         24.67480       56.42784       58.04166
O         25.12434       55.47205       58.65345
O         25.33159       57.60335       58.06560
H         22.08275       55.83298       54.66297
H         23.73066       54.25905       56.61697
H         22.59551       56.02514       57.97628
H         23.13346       57.28146       56.81400
N         25.66764       54.72742       55.01019
C         26.92084       55.14865       54.38986
C         27.80201       53.94200       54.07200
O         28.06780       53.17598       54.98958
C         27.67333       56.04022       55.40995
C         28.99326       56.55094       54.88970
C         30.19997       56.06370       55.42197
C         29.03100       57.52495       53.87928
C         31.42398       56.53868       54.94411
C         30.25832       58.00647       53.41232
C         31.45353       57.51187       53.94240
H         25.60057       53.77439       55.39938
H         26.70988       55.73168       53.47530
H         27.84211       55.42914       56.32539
H         27.06094       56.91241       55.72252
H         30.19477       55.30915       56.19901
H         28.11163       57.91833       53.46387
H         32.34934       56.15331       55.35269
H         30.28331       58.76452       52.64061
H         32.40267       57.88333       53.57865
N         28.36149       53.72151       52.83754
C         28.23117       54.56805       51.65703
C         26.81953       54.63038       51.11774
O         26.29556       55.71876       50.92981
C         29.16179       53.90909       50.62324
C         30.21892       53.28965       51.51052
C         29.35408       52.68971       52.61240
H         28.62445       55.57885       51.90247
H         28.65430       53.05499       50.12060
H         29.53195       54.59771       49.83398
H         30.88891       52.56289       51.00405
H         30.83302       54.11097       51.94644
H         28.83762       51.77179       52.25223
H         29.97724       52.46092       53.50396
N         26.14731       53.47790       50.84358
C         24.80497       53.44519       50.27951
C         24.84413       54.00596       48.86271
O         25.56353       53.45164       48.04317
C         24.27484       51.99344       50.24022
C         24.11783       51.39704       51.65094
C         23.66602       49.96723       51.58722
O         24.43489       48.99522       52.11534
O         22.60170       49.67761       51.06468
H         26.62005       52.58492       51.04768
H         24.12374       54.02613       50.93488
H         24.97215       51.36215       49.64432
H         23.27987       51.98214       49.74201
H         23.37573       51.99059       52.22612
H         25.08355       51.42919       52.19700
N         24.12201       55.09250       48.46668
C         23.23454       55.83476       49.33416
H         22.42718       55.17240       49.71107
H         23.80087       56.26734       50.18462
H         22.76846       56.66929       48.76823
H         24.20701       55.40932       47.48796
Ca        10.51556       51.20251       51.78204
O          7.20428       52.06190       53.65357
H          6.24573       52.30689       53.61646
H          7.44180       52.12428       54.61263
O          7.86101       54.15567       51.42741
H          6.91770       53.86562       51.34661
H          7.80761       55.12025       51.64297
O         11.18692       54.12922       50.52944
H         12.14509       54.33191       50.67503
H         10.72708       54.99556       50.66571

Ca 1.0



