%chk=apoCaM-CA-Ng.loop3.water4.frame177.chk
%nprocshared=20
%mem=10GB
%nosave
#b3lyp/svp scf=(tight,noincore,xqc) Test 
#IOP(5/87=12) Density=Current Pop=(MK,readradii) iop(6/33=2) iop(6/42=6)

apoCaM-CA-Ng.loop3.water4.frame177 

   0  1 
C         50.27342       33.96723       14.94162
C         48.87556       33.62738       14.50962
O         47.95912       33.77564       15.30243
H         51.00500       33.79336       14.12353
H         50.32448       35.03693       15.23395
H         50.56061       33.33685       15.80886
N         48.64048       33.14460       13.25848
C         47.32334       32.79350       12.73643
C         46.64198       31.70872       13.56504
O         45.43226       31.75170       13.74368
C         46.44957       34.05448       12.53680
C         47.09229       35.00671       11.56450
O         47.44710       36.24372       11.95605
O         47.29283       34.66211       10.41063
H         49.44453       33.00191       12.62783
H         47.48124       32.33943       11.73262
H         46.28832       34.56243       13.51147
H         45.45438       33.77530       12.12895
N         47.37326       30.67967       14.07973
C         46.79469       29.51067       14.74140
C         46.92724       29.57359       16.25760
O         46.53167       28.62106       16.91591
C         47.49624       28.25078       14.20498
C         47.36499       28.10848       12.68152
C         48.25859       26.97104       12.18179
C         48.20236       26.84620       10.65589
N         49.18648       25.87359       10.18326
H         48.40004       30.70970       13.98207
H         45.70553       29.43559       14.52448
H         47.08021       27.33914       14.68776
H         48.57374       28.32655       14.47368
H         47.70855       29.04230       12.18614
H         46.30131       27.93385       12.40706
H         47.95902       26.00784       12.65037
H         49.30568       27.20165       12.47812
H         48.42721       27.83239       10.19150
H         47.18003       26.53585       10.34479
H         49.12106       25.79625        9.14305
H         50.14990       26.19743       10.43377
H         49.00862       24.93676       10.61193
N         47.40236       30.68581       16.88639
C         47.43606       30.85955       18.33703
C         46.04285       30.57654       18.92210
O         45.06768       31.11847       18.42512
C         47.98523       32.28445       18.63561
C         47.89555       32.64338       20.07796
O         46.79573       32.79412       20.55538
O         48.95131       32.84531       20.88033
H         47.69921       31.48138       16.30794
H         48.15082       30.13575       18.78622
H         47.40256       33.05090       18.07599
H         49.04174       32.33469       18.29531
N         45.88418       29.66124       19.93081
C         44.58660       29.19151       20.41723
C         43.69695       30.21688       21.11145
O         42.53263       29.90486       21.31490
H         46.72299       29.19962       20.31252
H         44.73639       28.34713       21.12647
H         44.03543       28.78915       19.54099
N         44.15349       31.43602       21.51115
C         43.31610       32.49154       22.08531
C         43.28365       33.74174       21.19726
O         42.61351       34.69969       21.55691
C         43.80372       32.85418       23.50531
C         45.17996       33.55704       23.50166
N         45.09274       34.90238       24.05547
O         46.13956       32.81929       24.20542
H         45.14523       31.61983       21.40607
H         42.26809       32.13113       22.17690
H         43.82195       31.94388       24.14268
H         43.04739       33.53371       23.95960
H         44.42779       35.46717       23.47976
H         46.03017       35.34326       23.94420
N         43.96622       33.80075       20.01867
C         43.98010       34.94758       19.13313
C         44.71997       36.12448       19.72141
O         44.14422       37.19872       19.81301
H         44.48649       32.98517       19.69566
H         42.94000       35.21597       18.84753
H         44.52145       34.66813       18.20107
N         46.03128       36.00163       20.07996
C         46.87410       37.12116       20.48070
C         47.40704       36.95998       21.88526
O         48.09949       35.99285       22.16982
C         48.06451       37.23492       19.50904
C         47.59057       37.53196       18.11286
C         46.92532       38.73935       17.84478
C         47.79908       36.61378       17.07187
C         46.46220       39.01965       16.56019
C         47.33245       36.89983       15.78454
C         46.65774       38.10116       15.52797
O         46.19002       38.38397       14.29725
H         46.47780       35.08203       19.99589
H         46.29898       38.06963       20.44034
H         48.64101       36.28192       19.53472
H         48.74893       38.05110       19.82960
H         46.76261       39.46455       18.63163
H         48.31197       35.67758       17.25876
H         45.94649       39.95109       16.36830
H         47.48920       36.19297       14.98470
H         46.27961       37.76622       13.56044
N         47.15298       37.93384       22.80280
C         47.71069       37.97273       24.14621
C         46.57072       37.80801       25.13387
O         46.63609       36.90089       25.95139
C         48.52185       39.28656       24.33517
C         49.61083       39.46971       23.23646
C         49.15586       39.36689       25.73568
C         50.70256       38.39129       23.20242
H         46.55239       38.72347       22.52258
H         48.41637       37.13175       24.30419
H         47.82133       40.14515       24.23362
H         50.10551       40.45445       23.38261
H         49.12473       39.49785       22.23752
H         48.38183       39.33759       26.52370
H         49.84920       38.52012       25.91636
H         49.71389       40.32125       25.84708
H         51.41698       38.62031       22.38370
H         51.27545       38.36703       24.15122
H         50.27684       37.38761       23.00495
N         45.44448       38.57887       25.06314
C         44.26647       38.27506       25.87051
C         44.47908       38.52125       27.35048
O         43.65420       38.05904       28.12530
C         43.03169       39.02470       25.36388
O         42.80836       38.68568       24.02215
H         45.38393       39.31740       24.34701
H         44.05475       37.18800       25.74118
H         43.19904       40.11999       25.46094
H         42.14732       38.71883       25.96780
H         42.03699       39.23112       23.72188
N         45.57963       39.18093       27.82529
C         45.92711       39.24168       29.23743
C         46.08930       37.81863       29.72146
O         45.38175       37.38952       30.62552
C         44.90356       40.05618       30.04638
H         46.24851       39.59488       27.16525
H         46.90694       39.75952       29.34538
H         43.89313       39.60078       30.02661
H         45.23094       40.12030       31.10676
H         44.83719       41.08766       29.64106
N         46.99810       37.00752       29.10812
C         47.12035       35.59480       29.43716
C         48.39077       34.96811       28.89546
O         49.06554       35.54434       28.05138
C         45.90531       34.82246       28.89985
H         47.61510       37.42523       28.39381
H         47.18656       35.51728       30.54499
H         45.96872       33.74685       29.16489
H         44.95731       35.22685       29.30865
H         45.86566       34.90975       27.79084
N         48.81957       33.79742       29.44864
C         50.08381       33.13421       29.15052
C         51.22645       34.13802       29.21505
O         52.00835       34.23387       28.27825
C         50.02935       32.37783       27.80510
C         48.84938       31.39246       27.74440
C         48.82118       30.64943       26.44025
O         48.91912       29.30660       26.42477
O         48.68870       31.25510       25.38983
H         48.25520       33.39102       30.21172
H         50.24924       32.36984       29.94219
H         50.97866       31.81241       27.67298
H         49.95414       33.10441       26.97719
H         47.88789       31.93939       27.85245
H         48.93588       30.66330       28.57857
N         51.32898       34.97506       30.28560
C         52.32303       36.02443       30.38564
H         53.02178       36.03236       29.52283
H         51.80873       37.00892       30.42036
H         52.90925       35.89099       31.31692
H         50.64023       34.90125       31.04943
Ca        48.04531       33.03720       22.94252
O         50.58477       30.94515       23.01613
H         51.05203       31.33110       23.79898
H         50.21596       30.08839       23.34794
O         50.86993       34.13549       23.82707
H         51.21534       34.24509       24.74863
H         51.64615       34.32858       23.24418
O         48.43321       34.20224       25.50027
H         47.72851       33.89621       26.12336
H         48.11291       35.07034       25.16491
O         47.17200       30.31108       22.69718
H         47.96084       29.81910       22.35813
H         46.82182       29.75185       23.43407

Ca 1.0



