%chk=apoCaM-CA-Ng.loop4.water4.frame727.chk
%nprocshared=20
%mem=10GB
%nosave
#b3lyp/svp scf=(tight,noincore,xqc) Test 
#IOP(5/87=12) Density=Current Pop=(MK,readradii) iop(6/33=2) iop(6/42=6)

apoCaM-CA-Ng.loop4.water4.frame727 

   -3  1 
C         87.57519      -11.03079       75.92366
C         88.09646      -11.54781       74.61586
O         87.63535      -12.57749       74.14534
H         86.78028      -11.69242       76.32687
H         88.40751      -10.98201       76.65818
H         87.15952      -10.01079       75.78260
N         89.08247      -10.86148       73.97399
C         89.70505      -11.25541       72.71138
C         88.64956      -11.31633       71.61542
O         88.54271      -12.32481       70.92620
C         90.43318      -12.61699       72.84834
C         91.03893      -12.83990       74.20316
O         92.02530      -12.09181       74.72867
O         90.57466      -13.73343       74.89024
H         89.42898       -9.99320       74.41145
H         90.45608      -10.47224       72.46742
H         91.17029      -12.75652       72.02931
H         89.67849      -13.43005       72.74488
N         87.73676      -10.31228       71.49013
C         86.51778      -10.51561       70.71064
C         86.77202      -10.33384       69.21673
O         87.74564       -9.67692       68.87536
C         85.32298       -9.67905       71.26392
C         85.50673       -8.15919       71.04210
C         85.10540      -10.01804       72.75561
C         84.28586       -7.34280       71.47302
H         87.81444       -9.50507       72.12445
H         86.23564      -11.57760       70.88202
H         84.40781       -9.98520       70.71587
H         85.65916       -7.97194       69.95805
H         86.39809       -7.78662       71.58859
H         85.03815      -11.11341       72.89380
H         85.94317       -9.65731       73.38598
H         84.16529       -9.57723       73.14061
H         83.38094       -7.68730       70.92817
H         84.10930       -7.42248       72.56485
H         84.45624       -6.27172       71.23932
N         86.00925      -10.91956       68.24105
C         84.87716      -11.81401       68.48057
C         85.20559      -13.25573       68.13503
O         84.44214      -14.12367       68.53194
C         83.60579      -11.34626       67.73791
C         83.71557      -11.42246       66.23270
O         82.97658      -12.16493       65.60557
O         84.60132      -10.65991       65.56439
H         86.30543      -10.76309       67.26704
H         84.62545      -11.82740       69.54998
H         83.35887      -10.30469       68.03400
H         82.76138      -11.99711       68.05867
N         86.30877      -13.59992       67.40924
C         86.63455      -14.97087       67.06756
C         85.53892      -15.61923       66.24921
O         85.18603      -15.10656       65.19674
H         86.95439      -12.87572       67.06763
H         86.82735      -15.54368       68.00099
H         87.57090      -14.98161       66.46885
N         84.98613      -16.78882       66.67217
C         83.98064      -17.53797       65.92099
C         82.59983      -16.87896       65.83437
O         81.74646      -17.46291       65.18040
C         83.84756      -18.98068       66.49332
C         83.50673      -19.11173       67.96220
O         83.43030      -18.14016       68.69641
O         83.33324      -20.34003       68.48492
H         85.37311      -17.20568       67.53161
H         84.34912      -17.65771       64.87794
H         84.81372      -19.50825       66.34542
H         83.07955      -19.52846       65.90488
N         82.27027      -15.70617       66.45566
C         80.90501      -15.18101       66.44799
C         79.93630      -16.05203       67.24871
O         78.74526      -15.77954       67.24055
H         82.98278      -15.17667       66.96529
H         80.56249      -15.08701       65.39464
H         80.89110      -14.16650       66.90313
N         80.39804      -17.09554       67.99309
C         79.62790      -18.01405       68.81583
C         78.94067      -17.30941       69.96654
O         77.79282      -17.60056       70.27106
C         78.71828      -18.93442       67.97655
C         79.54927      -19.71541       66.93966
C         78.76443      -20.75229       66.17819
N         79.39041      -21.50863       65.24682
O         77.57463      -20.92606       66.39870
H         81.40189      -17.25940       68.02114
H         80.36885      -18.68204       69.31307
H         77.92492      -18.34762       67.46497
H         78.23611      -19.66304       68.66492
H         80.37933      -20.24132       67.45963
H         79.98367      -19.00312       66.20938
H         80.39411      -21.37555       65.05128
H         78.87498      -22.23065       64.72239
N         79.63844      -16.38464       70.68396
C         79.16637      -15.77861       71.92380
C         80.27092      -15.88388       72.97004
O         80.03411      -16.43525       74.03655
C         78.63748      -14.32364       71.71300
C         79.66896      -13.30300       71.20967
C         77.43298      -14.33378       70.75821
H         80.56980      -16.11674       70.33677
H         78.28775      -16.34286       72.31155
H         78.26606      -13.95820       72.69687
H         79.18423      -12.31266       71.07258
H         80.46513      -13.14151       71.95970
H         80.10660      -13.61949       70.23933
H         76.99280      -13.31656       70.68236
H         77.73386      -14.66366       69.74164
H         76.64289      -15.01547       71.13960
N         81.51400      -15.38346       72.71508
C         82.63135      -15.39530       73.65906
C         83.10168      -16.81640       73.95887
O         82.50896      -17.76312       73.46646
C         83.77128      -14.50818       73.10258
C         83.26433      -13.10997       72.82620
N         82.76153      -12.33987       73.82159
O         83.29386      -12.67575       71.68468
H         81.67912      -14.94376       71.79951
H         82.29574      -14.94103       74.61535
H         84.16229      -14.95530       72.16143
H         84.61069      -14.42876       73.82342
H         82.72620      -12.68091       74.79263
H         82.40169      -11.39489       73.62075
N         84.17303      -17.03227       74.78126
C         84.57676      -18.36608       75.22898
C         84.88768      -18.34470       76.72449
O         84.72652      -17.30807       77.34803
C         85.75151      -18.91970       74.38875
C         87.11921      -18.33018       74.65211
C         87.45796      -17.02828       74.25125
C         88.09510      -19.12706       75.27974
C         88.75626      -16.54381       74.46415
C         89.37981      -18.63751       75.50429
C         89.72180      -17.35141       75.09094
O         90.98054      -16.91635       75.30032
H         84.70341      -16.22345       75.13073
H         83.74313      -19.08153       75.06052
H         85.51540      -18.85899       73.30435
H         85.80274      -20.00657       74.61280
H         86.73214      -16.39907       73.75270
H         87.86487      -20.13546       75.59869
H         89.00648      -15.54735       74.13234
H         90.11559      -19.26523       75.99156
H         91.29107      -16.05075       75.00922
N         85.40185      -19.44765       77.35078
C         85.86752      -19.41955       78.73364
C         87.38594      -19.56630       78.70903
O         87.85486      -20.65831       78.42431
C         85.21685      -20.55327       79.55210
C         83.69037      -20.41537       79.63231
C         83.09312      -21.55109       80.41409
O         83.21994      -22.70121       80.02358
O         82.40467      -21.30530       81.54491
H         85.55174      -20.31074       76.81212
H         85.59438      -18.46445       79.22031
H         85.63193      -20.54110       80.58430
H         85.46892      -21.53125       79.08367
H         83.24732      -20.41894       78.61319
H         83.43656      -19.45234       80.12588
N         88.24646      -18.51362       78.88471
C         87.82793      -17.12640       79.07373
C         87.37323      -16.85673       80.49735
O         87.51163      -17.72272       81.35172
C         88.93544      -16.13750       78.62936
C         90.21811      -16.13994       79.48795
C         91.24803      -15.16484       78.96573
O         92.30206      -15.01287       79.56025
O         91.02892      -14.49655       77.81829
H         89.24894      -18.71074       78.74463
H         86.98988      -16.92663       78.37646
H         88.51725      -15.10713       78.63952
H         89.19420      -16.37375       77.57704
H         90.67826      -17.14898       79.50023
H         89.95535      -15.85228       80.52697
N         86.81803      -15.65363       80.81610
C         86.39019      -15.29293       82.15266
H         85.30084      -15.08062       82.14756
H         86.59205      -16.09373       82.89447
H         86.93144      -14.37771       82.47316
H         86.68493      -14.94908       80.07517
Ca        92.32900      -12.94302       76.80141
O         94.54518      -12.83228       79.05634
H         95.38342      -12.88875       78.53264
H         94.70206      -12.09501       79.69825
O         94.43991      -14.70392       75.64143
H         94.00983      -15.40736       76.19006
H         94.23628      -14.95840       74.70657
O         94.30913      -10.59890       76.30733
H         95.20805      -10.82275       76.65645
H         94.40445      -10.65377       75.32325
O         91.67953      -11.59047       79.89962
H         91.00285      -12.04867       80.45869
H         92.34132      -11.24106       80.54812

Ca 1.0



