%chk=apoCaM-CA-Ng.loop2.water4.frame550.chk
%nprocshared=20
%mem=10GB
%nosave
#b3lyp/svp scf=(tight,noincore,xqc) Test 
#IOP(5/87=12) Density=Current Pop=(MK,readradii) iop(6/33=2) iop(6/42=6)

apoCaM-CA-Ng.loop2.water4.frame550 

   -2  1 
C         54.66822       38.37377       70.22251
C         53.28115       38.78547       69.83837
O         52.86662       39.88232       70.18762
H         55.35511       39.24240       70.14897
H         54.66688       37.98561       71.26130
H         55.04050       37.58378       69.53590
N         52.49017       37.93021       69.13255
C         51.14323       38.27014       68.70700
C         51.20510       39.44726       67.74707
O         51.66436       39.29714       66.62957
C         50.46213       37.02296       68.10605
C         49.05891       37.27657       67.64290
O         48.75872       37.09179       66.47413
O         48.11836       37.67770       68.51839
H         52.85846       36.99225       68.91499
H         50.55488       38.55801       69.60544
H         50.42831       36.24041       68.89666
H         51.06870       36.63072       67.25973
N         50.75031       40.65997       68.16222
C         50.71617       41.89039       67.36435
C         52.09769       42.50460       67.07144
O         53.02255       42.20284       67.81377
C         49.91242       42.91541       68.18113
H         50.32758       40.67665       69.10244
H         50.19027       41.64116       66.42549
H         49.52787       43.72980       67.55152
H         49.03467       42.42919       68.66126
H         50.54185       43.33151       69.00282
N         52.32678       43.46316       66.10478
C         51.34761       43.94135       65.11562
C         51.03973       42.87734       64.11192
O         51.86342       42.01040       63.98754
C         51.83581       45.20404       64.36470
C         53.12032       45.05336       63.57251
O         53.87332       43.94378       63.65323
O         53.49314       45.96450       62.85200
H         53.27502       43.86904       66.06746
H         50.40929       44.19007       65.63676
H         51.97292       46.02065       65.10126
H         51.03521       45.51223       63.65768
N         49.92265       42.91382       63.32479
C         49.47766       41.83868       62.43334
C         48.76544       40.72172       63.18878
O         48.68815       40.79210       64.40717
H         49.32543       43.74969       63.38156
H         50.31450       41.44321       61.82221
H         48.72603       42.27285       61.74552
N         48.18780       39.64571       62.57087
C         48.17386       39.35936       61.13883
C         48.98537       38.09295       60.84657
O         48.97183       37.62945       59.71576
C         46.70357       39.25550       60.64257
C         45.98327       40.58412       60.51462
N         44.69940       40.60797       60.08625
O         46.55504       41.63803       60.74732
H         47.73705       38.93419       63.17288
H         48.67155       40.15001       60.54128
H         46.12370       38.57983       61.30844
H         46.68685       38.83614       59.61455
H         44.19679       39.72962       59.89361
H         44.20769       41.50243       59.93674
N         49.80215       37.54052       61.79206
C         50.76440       36.48485       61.51630
C         51.80259       36.89543       60.48940
O         52.37430       36.01134       59.86657
H         49.77231       37.90116       62.74620
H         50.21615       35.59859       61.14384
H         51.30178       36.19832       62.45021
N         52.10532       38.20857       60.25930
C         53.01016       38.65366       59.21414
C         54.31165       39.15566       59.79787
O         54.34663       39.73457       60.87187
C         52.32823       39.63389       58.23406
C         51.25365       38.90535       57.42429
O         51.75325       40.71214       58.92193
H         51.67531       38.94044       60.83378
H         53.30514       37.78227       58.59648
H         53.10392       40.00886       57.53115
H         50.96186       41.05783       58.42941
H         50.43219       38.60858       58.09829
H         50.84551       39.59713       56.65957
H         51.67217       38.01353       56.91659
N         55.45240       38.79159       59.15751
C         56.77270       38.75756       59.75035
C         57.58602       39.96284       59.30347
O         57.66372       40.26022       58.12148
C         57.40383       37.36744       59.40704
C         58.87951       37.26676       59.86809
C         56.52544       36.25801       60.04531
C         59.56903       35.93918       59.53835
H         55.35384       38.29955       58.25749
H         56.69469       38.77707       60.85474
H         57.39081       37.23496       58.30149
H         58.94525       37.42560       60.95979
H         59.46235       38.06200       59.35831
H         56.55117       36.31657       61.15509
H         55.46014       36.34773       59.73906
H         56.85314       35.25087       59.72610
H         59.10683       35.09766       60.09404
H         59.54040       35.72321       58.44868
H         60.63356       36.00918       59.85061
N         58.19709       40.72066       60.25166
C         59.03140       41.88607       60.03130
C         60.36394       41.81652       60.81518
O         61.15773       42.73467       60.66231
C         58.18293       43.15681       60.29083
C         57.27443       43.06622       61.47190
O         55.95627       42.78783       61.31326
O         57.70463       43.38730       62.55715
H         58.01928       40.49074       61.21957
H         59.32782       41.94395       58.96718
H         57.51231       43.28773       59.41705
H         58.81903       44.06071       60.36856
N         60.72563       40.72971       61.57473
C         62.02276       40.54802       62.22031
C         61.85292       39.98030       63.64531
O         62.41982       38.93112       63.92706
C         62.89780       39.58022       61.36586
C         63.33901       40.13832       60.03339
C         62.51957       40.08094       58.89075
C         64.62732       40.68707       59.92284
C         62.98741       40.58021       57.66519
C         65.08681       41.18672       58.70567
C         64.26778       41.13896       57.57654
H         60.10173       39.92885       61.63413
H         62.57263       41.51190       62.30388
H         62.42820       38.58088       61.21542
H         63.82440       39.38775       61.94720
H         61.53382       39.63585       58.94359
H         65.27867       40.73055       60.78623
H         62.36442       40.52923       56.78049
H         66.08285       41.60487       58.64410
H         64.63230       41.52863       56.63416
N         61.11211       40.59917       64.62163
C         61.03065       40.11848       66.00802
C         60.34038       38.76498       66.21111
O         60.30979       38.25817       67.32346
C         60.20738       41.19886       66.71528
C         60.44158       42.43550       65.86103
C         60.43028       41.86098       64.45558
H         62.06926       40.08077       66.39778
H         59.12037       40.96967       66.61127
H         60.46366       41.29620       67.79041
H         59.70255       43.25182       66.01287
H         61.46473       42.82128       66.06064
H         59.38657       41.64500       64.13701
H         60.92486       42.56812       63.75679
N         59.73177       38.15668       65.16735
C         59.07802       36.86555       65.17849
C         60.16239       35.84041       64.94052
O         60.26607       34.87899       65.68774
C         57.99713       36.74985       64.06413
C         56.88331       37.82266       64.04928
C         57.28799       39.09948       63.40913
O         56.38263       40.04475       63.16913
O         58.39472       39.23703       62.95754
H         59.90791       38.56572       64.26788
H         58.55378       36.70127       66.14755
H         57.48559       35.77806       64.21504
H         58.46908       36.71950       63.06008
H         56.46871       38.00143       65.06178
H         56.07707       37.45666       63.37999
N         61.06176       36.04493       63.93191
C         62.25484       35.25360       63.75171
H         63.07008       35.66276       64.38985
H         62.07341       34.19007       63.99760
H         62.58738       35.33918       62.69535
H         60.98039       36.88609       63.34263
Ca        54.82760       41.56102       62.82190
O         52.09412       39.17938       63.08090
H         51.88093       39.99653       63.53210
H         51.48076       38.60775       63.57873
O         56.50963       42.41386       65.14103
H         56.71137       41.47400       64.93079
H         57.20158       42.90073       64.64727
O         54.34088       40.54503       65.39244
H         53.49654       40.08503       65.58443
H         54.50251       41.10562       66.18841
O         52.82979       42.66396       61.15988
H         52.21484       43.39629       60.91739
H         52.62764       41.96178       60.50831

Ca 1.0



