%chk=apoCaM-CA-Ng.loop1.water3.frame475.chk
%nprocshared=20
%mem=10GB
%nosave
#b3lyp/svp scf=(tight,noincore,xqc) Test 
#IOP(5/87=12) Density=Current Pop=(MK,readradii) iop(6/33=2) iop(6/42=6)

apoCaM-CA-Ng.loop1.water3.frame475 

   0  1 
C         56.71853       39.73473       80.38347
C         55.67479       39.56078       79.31751
O         54.76109       38.77100       79.50386
H         57.48597       40.48027       80.08321
H         56.23912       40.08764       81.32039
H         57.22580       38.76630       80.57168
N         55.74131       40.28834       78.16944
C         54.74858       40.20971       77.10204
C         54.85502       38.92405       76.27517
O         54.13799       38.84041       75.29121
C         54.88823       41.42813       76.15125
C         54.61772       42.74215       76.84328
O         55.40986       43.17219       77.84359
O         53.68068       43.43797       76.48414
H         56.51149       40.96751       78.07492
H         53.72789       40.28328       77.53469
H         54.13957       41.33225       75.33413
H         55.89820       41.44817       75.68860
N         55.70871       37.89318       76.56467
C         55.90641       36.76654       75.65175
C         55.45385       35.42731       76.21318
O         55.80596       35.13776       77.34777
C         57.39619       36.62853       75.29311
C         57.93757       37.82349       74.50660
C         59.33509       37.48909       73.96344
C         59.99515       38.64812       73.20426
N         59.20986       39.08436       72.04799
H         56.28356       37.91654       77.41686
H         55.36833       36.95548       74.72243
H         57.50909       35.72974       74.65582
H         58.00838       36.46035       76.20680
H         57.96716       38.72092       75.16159
H         57.25989       38.01967       73.64933
H         59.25741       36.61138       73.28209
H         60.00035       37.21011       74.80952
H         60.99108       38.29659       72.85316
H         60.15460       39.50560       73.89337
H         59.76005       39.79696       71.51691
H         59.00455       38.27532       71.41765
H         58.31939       39.53343       72.35894
N         54.80616       34.46871       75.46276
C         54.31828       34.57895       74.07971
C         55.39194       35.06093       73.10037
O         55.24039       36.13892       72.54679
C         53.03103       35.44569       74.02065
C         51.86404       34.86250       74.77587
O         50.68148       35.50631       74.75851
O         51.96113       33.80671       75.38099
H         54.65795       33.55136       75.91205
H         53.99674       33.57469       73.72297
H         52.70554       35.52353       72.96063
H         53.21806       36.46494       74.40686
N         56.50608       34.35224       72.78003
C         56.79050       32.99524       73.21919
C         58.04802       32.45361       72.54555
O         58.77031       33.21548       71.91861
H         57.14858       34.81541       72.11933
H         55.93927       32.36319       72.88703
H         56.88460       32.93978       74.32415
N         58.37179       31.13228       72.54027
C         57.63963       30.07919       73.22672
C         56.77358       29.32566       72.23973
O         57.28290       28.85112       71.23290
C         58.60843       29.12792       73.97044
C         59.53725       28.33275       73.07995
O         60.38765       28.88621       72.40197
O         59.44738       26.98935       73.05231
H         59.16441       30.86101       71.94165
H         56.98073       30.51681       74.00614
H         57.98957       28.40561       74.54578
H         59.21590       29.70872       74.69717
N         55.44064       29.16020       72.47886
C         54.57049       28.45223       71.55933
C         54.39261       29.25625       70.30142
O         54.80531       28.81617       69.23809
H         55.03200       29.51978       73.35493
H         53.56727       28.31036       72.01725
H         54.99628       27.44621       71.35099
N         53.75619       30.45833       70.36607
C         53.55050       31.33570       69.22351
C         54.13916       32.69225       69.54831
O         53.77359       33.27770       70.56012
C         52.04775       31.47167       68.89904
C         51.43366       30.11339       68.53934
O         51.89844       32.34147       67.80546
H         53.38485       30.76544       71.27929
H         54.04092       30.92471       68.31237
H         51.52399       31.89088       69.78991
H         50.95037       32.63432       67.79593
H         50.35823       30.23991       68.29349
H         51.94923       29.67752       67.65619
H         51.51402       29.40657       69.39110
N         55.05781       33.25967       68.71984
C         55.68500       34.55360       68.98374
C         54.73122       35.75461       68.83046
O         55.22291       36.87018       68.85752
C         57.00936       34.72252       68.16343
C         56.78667       34.89091       66.64005
C         57.97381       33.55628       68.47661
C         58.08655       35.18895       65.88143
H         55.35602       32.72014       67.89480
H         56.03277       34.55852       70.03794
H         57.49697       35.65254       68.53450
H         56.10694       35.75244       66.47120
H         56.31584       33.98508       66.20497
H         57.59555       32.58993       68.08372
H         58.98218       33.73147       68.05376
H         58.10281       33.45713       69.56923
H         58.57980       36.09365       66.29818
H         58.79285       34.33517       65.93079
H         57.86286       35.37010       64.81006
N         53.37311       35.62365       68.70208
C         52.43909       36.74573       68.52937
C         52.47549       37.81971       69.62312
O         51.90725       38.87803       69.39220
C         50.97728       36.22398       68.40570
C         50.49340       35.52328       69.69649
O         50.89046       35.33544       67.32260
H         52.97119       34.68368       68.67998
H         52.72579       37.24975       67.58003
H         50.31402       37.09796       68.20779
H         49.92387       35.18459       67.15077
H         49.44260       35.18623       69.57705
H         51.10987       34.63336       69.93999
H         50.52682       36.21432       70.56357
N         53.06958       37.61905       70.83498
C         53.13183       38.60876       71.92136
C         51.73705       38.98561       72.43864
O         50.74102       38.56729       71.86671
C         53.94683       39.87128       71.49047
C         55.32104       39.51399       70.92638
O         54.15081       40.71919       72.59044
H         53.49652       36.70301       71.01112
H         53.67230       38.13717       72.76641
H         53.37643       40.41133       70.70004
H         54.18846       41.64999       72.24717
H         55.87517       40.44110       70.66812
H         55.91141       38.93346       71.66577
H         55.21077       38.93477       69.99723
N         51.60269       39.80358       73.52465
C         50.33468       40.35390       73.99127
C         50.01751       39.95242       75.43244
O         48.96641       40.34546       75.92066
C         50.41625       41.89038       73.84371
C         50.59645       42.29102       72.36266
C         50.88530       43.78468       72.14599
C         49.82284       44.75079       72.69239
N         48.50461       44.52382       72.10042
H         52.44218       40.12036       74.02184
H         49.48923       39.98756       73.36854
H         51.27810       42.26336       74.44135
H         49.48794       42.35948       74.23332
H         49.69705       41.98152       71.78846
H         51.46493       41.75368       71.92798
H         50.99877       43.95581       71.05243
H         51.85733       44.03156       72.62630
H         50.15341       45.78682       72.45587
H         49.75898       44.66511       73.79823
H         48.55875       44.58775       71.05808
H         48.13295       43.58931       72.38349
H         47.84754       45.25705       72.45186
N         50.84456       39.14883       76.16445
C         50.53362       38.67673       77.51149
C         50.38724       39.83357       78.48587
O         51.32416       40.60350       78.64983
C         51.65020       37.71836       77.99615
C         51.36721       37.06262       79.35780
C         50.16929       36.16011       79.30091
O         49.10869       36.38958       80.09787
O         50.15675       35.20886       78.53615
H         51.71522       38.81337       75.73688
H         49.58464       38.09918       77.46036
H         52.60120       38.28195       78.07000
H         51.80026       36.91307       77.24367
H         51.22339       37.84290       80.13597
H         52.24759       36.45073       79.64967
N         49.23679       39.99278       79.19669
C         49.07418       41.04670       80.17517
H         48.06963       40.97643       80.64476
H         49.84153       40.94426       80.97274
H         49.17389       42.03995       79.68944
H         48.45596       39.33373       79.05796
Ca        49.85777       32.25433       76.88182
O         48.12817       33.13355       74.40578
H         48.17412       32.37943       73.76573
H         47.62979       33.84012       73.92350
O         49.80001       32.25912       79.99223
H         50.62000       32.78925       79.82736
H         49.10738       32.93293       80.20837
O         47.49165       34.32784       77.39504
H         47.02595       35.08758       76.96381
H         47.47162       34.54042       78.36190

Ca 1.0



