%chk=apoCaM-CA-Ng.loop1.water7.frame588.chk
%nprocshared=20
%mem=10GB
%nosave
#b3lyp/svp scf=(tight,noincore,xqc) Test 
#IOP(5/87=12) Density=Current Pop=(MK,readradii) iop(6/33=2) iop(6/42=6)

apoCaM-CA-Ng.loop1.water7.frame588 

   0  1 
C         76.01553      130.27610        4.56362
C         74.61567      130.77789        4.76090
O         73.98598      130.38035        5.73148
H         76.63456      130.55398        5.44247
H         76.00170      129.16984        4.46694
H         76.47841      130.70620        3.65143
N         74.05629      131.66343        3.88396
C         72.69946      132.18077        4.06081
C         71.66778      131.06139        4.04538
O         71.98436      129.96065        3.61288
C         72.35946      133.29310        3.04243
C         72.34934      132.83794        1.60299
O         71.32685      132.92929        0.94321
O         73.46961      132.37346        1.01700
H         74.63238      131.99825        3.09942
H         72.67167      132.64467        5.07202
H         73.09967      134.11596        3.14570
H         71.35983      133.70860        3.29716
N         70.44134      131.25285        4.61747
C         69.49264      130.16447        4.83179
C         68.13311      130.51887        4.26131
O         67.54266      131.50744        4.67404
C         69.45020      129.85969        6.34430
C         68.75232      128.53405        6.71340
C         69.02261      128.20552        8.19650
C         68.58833      126.79488        8.62850
N         67.13875      126.62905        8.65267
H         70.22072      132.17710        5.01991
H         69.86602      129.23948        4.34104
H         69.01399      130.71101        6.91183
H         70.51310      129.75255        6.65742
H         69.19715      127.72256        6.09719
H         67.66467      128.58342        6.50146
H         68.55839      128.97107        8.85580
H         70.12284      128.23850        8.35351
H         68.97635      126.61774        9.65650
H         69.04849      126.03419        7.95879
H         66.74447      126.73004        7.69283
H         66.92360      125.66977        9.00808
H         66.71026      127.32660        9.30278
N         67.58284      129.73357        3.29463
C         66.28042      129.94592        2.67593
C         65.45409      128.69029        2.92108
O         65.31390      127.87955        2.01489
C         66.51321      130.21908        1.17231
C         65.25997      130.44483        0.36534
O         64.15035      130.40702        0.87446
O         65.38220      130.68112       -0.95315
H         68.12283      128.91856        2.96349
H         65.74988      130.83212        3.08937
H         67.06483      129.36589        0.72084
H         67.14463      131.12860        1.07406
N         64.91406      128.40293        4.13671
C         64.88038      129.33389        5.25574
C         64.41668      128.66644        6.52684
O         64.55626      127.46073        6.64664
H         64.44799      127.49135        4.23655
H         64.19776      130.16915        4.98763
H         65.87892      129.74696        5.47282
N         63.91719      129.40188        7.55946
C         63.55301      128.79979        8.84337
C         62.46470      127.72870        8.74079
O         62.31707      126.96485        9.68493
C         63.14975      129.87486        9.87915
C         61.87195      130.59690        9.52566
O         60.81192      130.52637       10.35297
O         61.78990      131.26012        8.50427
H         63.84918      130.42286        7.43580
H         64.47210      128.30123        9.22247
H         63.96996      130.61837        9.98206
H         63.01586      129.38455       10.86806
N         61.64135      127.63249        7.65640
C         60.58728      126.63162        7.53701
C         61.07936      125.25806        7.10712
O         60.24244      124.39161        6.89579
H         61.70824      128.33899        6.90991
H         59.89620      126.96259        6.73273
H         59.99802      126.57850        8.47872
N         62.40070      124.99142        6.91320
C         62.92697      123.73975        6.37494
C         63.70761      124.01883        5.09842
O         63.83950      125.17415        4.71863
C         63.81377      123.03207        7.43521
C         65.00634      123.87845        7.89994
O         63.03718      122.70427        8.55685
H         63.08207      125.72194        7.12523
H         62.09900      123.04781        6.10658
H         64.23939      122.09700        7.00390
H         62.48219      121.92156        8.30042
H         65.65592      124.15795        7.04396
H         64.66561      124.80076        8.41444
H         65.61647      123.29817        8.62391
N         64.27710      123.00516        4.38528
C         65.10393      123.26268        3.20563
C         64.26665      123.86756        2.08018
O         64.82894      124.50983        1.20534
C         65.86444      121.98083        2.71926
C         66.59308      121.21565        3.86318
C         66.87467      122.30569        1.59711
C         67.58277      122.05226        4.67617
H         64.13972      122.04260        4.71872
H         65.86915      124.01070        3.51351
H         65.12032      121.26804        2.29835
H         67.12844      120.34277        3.42952
H         65.85571      120.78953        4.57119
H         66.37348      122.71327        0.69806
H         67.63276      123.04087        1.93950
H         67.39864      121.38189        1.27145
H         68.39529      122.45069        4.03720
H         67.06322      122.89023        5.18505
H         68.03799      121.41155        5.46054
N         62.91500      123.67572        2.03091
C         62.06453      124.18856        0.96198
C         61.47225      123.03078        0.17623
O         61.73426      121.88158        0.50416
C         60.99451      125.15598        1.53434
C         60.03547      124.49660        2.53189
O         61.62872      126.23518        2.17092
H         62.46418      123.10280        2.75718
H         62.66784      124.77074        0.23169
H         60.36415      125.54803        0.70355
H         61.99684      126.81632        1.45415
H         59.28421      125.24224        2.86928
H         59.49638      123.65000        2.05743
H         60.57423      124.13247        3.43087
N         60.69837      123.27457       -0.91908
C         60.20453      122.22640       -1.80130
C         60.81708      122.45787       -3.17805
O         61.58464      121.61596       -3.62425
C         58.65487      122.17914       -1.74986
C         58.06442      121.06716       -2.62030
O         58.09908      123.41466       -2.11974
H         60.48663      124.25129       -1.16875
H         60.55196      121.22883       -1.44806
H         58.38772      121.95145       -0.68856
H         57.28696      123.55047       -1.56408
H         56.96029      121.04196       -2.49622
H         58.28951      121.24181       -3.68899
H         58.47300      120.07911       -2.32085
N         60.55569      123.59364       -3.88867
C         61.18705      123.93021       -5.16345
C         61.77209      125.32832       -5.09856
O         61.11211      126.22560       -4.58961
C         60.17122      123.86801       -6.30978
C         59.64834      122.44065       -6.50744
C         58.77593      122.34370       -7.75857
C         58.26701      120.91141       -7.95754
N         57.48386      120.80637       -9.18701
H         59.87157      124.26519       -3.51320
H         61.99564      123.20991       -5.42311
H         60.69688      124.17614       -7.24182
H         59.32633      124.56857       -6.13029
H         59.06436      122.13499       -5.61743
H         60.51008      121.74606       -6.62607
H         59.38379      122.63852       -8.64238
H         57.91171      123.03712       -7.66848
H         57.63713      120.61707       -7.08836
H         59.13124      120.21216       -8.01712
H         58.08116      121.04834      -10.01123
H         57.14397      119.82361       -9.29344
H         56.66108      121.45052       -9.14612
N         62.98611      125.60602       -5.65556
C         63.57932      126.93864       -5.59711
C         63.85433      127.33742       -4.15359
O         63.33251      128.36719       -3.75410
C         64.85470      127.07845       -6.46399
C         64.54354      126.98868       -7.96725
C         65.78295      127.21768       -8.78630
O         66.17530      126.36066       -9.56158
O         66.45866      128.37894       -8.68157
H         63.48852      124.85220       -6.14922
H         62.85335      127.67249       -6.01975
H         65.62516      126.32978       -6.19372
H         65.28299      128.08870       -6.27710
H         63.80335      127.77240       -8.24119
H         64.10919      125.99543       -8.21006
N         64.62623      126.62430       -3.27931
C         65.28231      125.35874       -3.54167
H         66.37476      125.47165       -3.38629
H         64.89537      124.59786       -2.83174
H         65.11961      124.97009       -4.55724
H         64.74292      127.00219       -2.32625
Ca        63.62505      130.98291       -2.33621
O         66.40983      129.73506       -3.60625
H         67.01214      130.02806       -2.87742
H         66.75776      130.19596       -4.40984
O         62.23691      132.93048       -0.54140
H         62.47228      133.50990        0.22558
H         62.26354      132.01184       -0.17344
O         61.48885      129.17429       -1.14699
H         61.26094      128.99370       -2.09358
H         62.20258      128.52172       -0.93378
O         61.19041      131.46673       -4.15023
H         60.88385      132.38659       -4.35049
H         60.37420      130.91124       -4.22057
O         66.01796      133.18413       -2.46572
H         66.39838      132.80170       -3.29602
H         66.69991      133.00055       -1.77174
O         63.31981      133.81919       -3.78458
H         63.17104      134.70049       -3.35884
H         63.03426      133.94434       -4.72432
O         64.20422      131.14740       -5.55559
H         64.94146      130.73445       -6.07121
H         63.38838      130.92500       -6.07027

Ca 1.0



