%chk=apoCaM-CA-Ng.loop3.water2.frame796.chk
%nprocshared=20
%mem=10GB
%nosave
#b3lyp/svp scf=(tight,noincore,xqc) Test 
#IOP(5/87=12) Density=Current Pop=(MK,readradii) iop(6/33=2) iop(6/42=6)

apoCaM-CA-Ng.loop3.water2.frame796 

   0  1 
C        -11.47332      -18.93622       95.23560
C        -12.80036      -18.80397       95.93436
O        -13.33723      -19.80170       96.38989
H        -10.72289      -19.35914       95.93651
H        -11.56896      -19.60341       94.35495
H        -11.09517      -17.95015       94.88783
N        -13.37628      -17.58003       96.07418
C        -14.62044      -17.33292       96.80300
C        -15.79329      -18.01401       96.09711
O        -15.93060      -17.80963       94.89836
C        -14.84728      -15.79884       96.88247
C        -15.65323      -15.35929       98.07469
O        -15.14996      -14.43081       98.90576
O        -16.75198      -15.81783       98.30555
H        -12.87101      -16.77339       95.67504
H        -14.49654      -17.70476       97.84079
H        -15.28904      -15.43076       95.93183
H        -13.87046      -15.28403       97.01073
N        -16.70064      -18.79377       96.76448
C        -17.85925      -19.40096       96.09258
C        -19.12775      -18.56502       96.25299
O        -20.10727      -18.86313       95.58324
C        -18.09980      -20.84405       96.58133
C        -16.93202      -21.78540       96.24410
C        -17.21505      -23.25019       96.62830
C        -17.30101      -23.48181       98.14614
N        -17.54205      -24.89402       98.44474
H        -16.61938      -18.88220       97.78904
H        -17.67800      -19.42851       94.99517
H        -19.00941      -21.24280       96.07919
H        -18.28655      -20.82310       97.67571
H        -15.99502      -21.44184       96.73326
H        -16.78083      -21.75620       95.14274
H        -16.38406      -23.87374       96.23271
H        -18.15702      -23.58505       96.14012
H        -18.12341      -22.88068       98.58757
H        -16.34311      -23.16954       98.61593
H        -18.45986      -25.19419       98.04248
H        -16.77451      -25.48498       98.05012
H        -17.56926      -25.02589       99.48178
N        -19.17299      -17.48670       97.08167
C        -20.29150      -16.55343       97.18332
C        -19.85645      -15.13525       96.76852
O        -20.67194      -14.22679       96.83395
C        -20.87241      -16.63527       98.61299
C        -19.88347      -16.21139       99.65683
O        -19.57228      -15.04066       99.76520
O        -19.28811      -17.12032      100.44555
H        -18.36481      -17.30238       97.67668
H        -21.11112      -16.85213       96.49353
H        -21.14760      -17.69822       98.79107
H        -21.79777      -16.02786       98.71399
N        -18.60264      -14.89142       96.27012
C        -18.13716      -13.61686       95.74112
C        -17.87925      -12.50039       96.73880
O        -17.43532      -11.45719       96.27946
H        -17.94780      -15.67349       96.14576
H        -18.84864      -13.26504       94.96334
H        -17.16134      -13.79702       95.23848
N        -18.13643      -12.59562       98.07736
C        -17.95297      -11.46683       98.99433
C        -17.22025      -11.84001      100.27787
O        -17.09736      -13.01057      100.60861
C        -19.33769      -10.91091       99.38063
C        -20.09723      -10.43375       98.16850
N        -21.25921      -11.02357       97.80282
O        -19.65498       -9.50620       97.50705
H        -18.55401      -13.45374       98.43855
H        -17.37124      -10.65871       98.49823
H        -19.23738      -10.05663      100.08486
H        -19.90920      -11.71365       99.89836
H        -21.64565      -11.81264       98.34114
H        -21.77113      -10.69640       96.97026
N        -16.75869      -10.83718      101.08118
C        -16.22785      -11.00357      102.42596
C        -15.05026      -11.94466      102.53315
O        -14.05796      -11.75521      101.84373
H        -16.83838       -9.86665      100.73880
H        -17.04785      -11.34709      103.09104
H        -15.90299      -10.00591      102.79592
N        -15.08179      -12.95554      103.45268
C        -13.97186      -13.87979      103.68711
C        -13.74229      -14.78176      102.48725
O        -14.49527      -14.70576      101.53164
C        -14.27130      -14.77688      104.91502
C        -14.43339      -14.01596      106.20926
C        -13.37511      -13.24779      106.72444
C        -15.63412      -14.10080      106.93507
C        -13.51578      -12.57880      107.94438
C        -15.77154      -13.43276      108.15560
C        -14.71455      -12.67248      108.66606
O        -14.85968      -12.04359      109.84997
H        -15.92072      -13.04213      104.04677
H        -13.04813      -13.29211      103.87956
H        -13.44286      -15.49695      105.07702
H        -15.18789      -15.36871      104.70043
H        -12.43726      -13.17414      106.18900
H        -16.46156      -14.69279      106.56383
H        -12.69002      -11.99492      108.33119
H        -16.69876      -13.51309      108.70915
H        -14.14914      -11.51777      110.24427
N        -12.70959      -15.68304      102.49461
C        -12.42385      -16.64887      101.43347
C        -13.54912      -17.67463      101.33067
O        -14.70699      -17.29385      101.22428
C        -12.11413      -15.96447      100.06929
C        -11.67552      -16.98358       98.97980
C        -11.06500      -14.84819      100.22157
C        -10.35010      -17.71007       99.24023
H        -12.07512      -15.69102      103.30618
H        -11.49942      -17.18642      101.73328
H        -13.03895      -15.48706       99.69705
H        -11.57912      -16.44598       98.01189
H        -12.46338      -17.75235       98.85807
H        -10.86855      -14.37126       99.23775
H        -11.43192      -14.05650      100.90750
H        -10.11268      -15.24161      100.63263
H         -9.50543      -16.99445       99.29817
H        -10.38431      -18.31181      100.16885
H        -10.14663      -18.40515       98.39891
N        -13.27156      -19.00824      101.30093
C        -14.30245      -20.03849      101.20360
C        -14.07335      -21.21866      102.15113
O        -14.90327      -22.11480      102.15750
C        -14.34661      -20.55557       99.75872
O        -13.11638      -21.13468       99.41781
H        -12.28158      -19.28890      101.24326
H        -15.30243      -19.60468      101.43223
H        -14.56035      -19.69980       99.08338
H        -15.16062      -21.30555       99.65238
H        -13.18481      -21.38568       98.46135
N        -12.94432      -21.33667      102.91678
C        -12.62793      -22.55615      103.65795
C        -13.55664      -22.77680      104.84406
O        -14.24185      -21.83884      105.22923
C        -11.17803      -22.47327      104.14861
H        -12.23745      -20.59312      102.90039
H        -12.71114      -23.40284      102.94376
H        -10.49605      -22.33410      103.28273
H        -11.05385      -21.61470      104.84315
H        -10.87401      -23.39007      104.67302
N        -13.66445      -23.97618      105.49892
C        -13.10900      -25.24464      105.02525
C        -12.89606      -26.22287      106.18174
O        -13.82774      -26.41029      106.95178
C        -14.10109      -25.87410      104.04159
H        -14.36037      -24.02210      106.26017
H        -12.17992      -25.09039      104.45751
H        -13.69551      -26.83480      103.65633
H        -15.07910      -26.06671      104.53197
H        -14.26933      -25.19989      103.17595
N        -11.75850      -26.96858      106.34890
C        -10.61154      -26.94359      105.44512
C         -9.73907      -25.71120      105.63016
O         -8.86222      -25.49388      104.80519
C         -9.74768      -28.22178      105.59223
C         -9.01720      -28.34505      106.94419
C         -8.21320      -29.61245      107.00305
O         -7.31613      -29.81199      106.19908
O         -8.47101      -30.53129      107.95326
H        -11.77312      -27.66827      107.10663
H        -11.00653      -26.97634      104.40595
H         -8.98582      -28.22570      104.78091
H        -10.40179      -29.10967      105.44353
H         -9.74648      -28.34698      107.77969
H         -8.32647      -27.48662      107.08607
N         -9.86926      -24.89373      106.71428
C         -8.99020      -23.76402      106.93165
H         -7.93513      -24.10872      106.98003
H         -9.09297      -23.02684      106.11055
H         -9.24422      -23.26602      107.89099
H        -10.58050      -25.09029      107.43251
Ca       -17.49505      -16.36184      101.57883
O        -18.74625      -14.35705      103.23928
H        -18.45095      -13.94944      104.09142
H        -19.56496      -13.85967      102.98996
O        -16.61712      -17.57371      103.94631
H        -17.32596      -17.18547      104.51879
H        -15.94299      -17.92612      104.57824

Ca 1.0



