%chk=apoCaM-CA-Ng.loop4.water5.frame896.chk
%nprocshared=20
%mem=10GB
%nosave
#b3lyp/svp scf=(tight,noincore,xqc) Test 
#IOP(5/87=12) Density=Current Pop=(MK,readradii) iop(6/33=2) iop(6/42=6)

apoCaM-CA-Ng.loop4.water5.frame896 

   -3  1 
C          1.45469        6.93542       15.20799
C          0.45592        7.00160       14.09273
O         -0.15000        5.98838       13.77851
H          2.45584        7.22956       14.82922
H          1.15045        7.62584       16.02197
H          1.51756        5.90448       15.61864
N          0.22346        8.18398       13.45395
C         -0.72120        8.35244       12.35564
C         -2.11685        7.96615       12.81691
O         -2.52491        6.82798       12.63526
C         -0.25075        7.59204       11.09418
C         -1.06843        7.90857        9.86734
O         -2.08652        8.79142        9.91323
O         -0.78946        7.37469        8.80607
H          0.73981        9.01919       13.77071
H         -0.72398        9.43180       12.08054
H         -0.26600        6.49620       11.27247
H          0.79466        7.89423       10.87167
N         -2.87435        8.87164       13.49195
C         -4.17182        8.57294       14.08799
C         -5.22684        9.44642       13.42611
O         -5.07436       10.65947       13.47274
C         -4.09198        8.84104       15.62209
C         -3.06487        7.87212       16.26899
C         -5.47799        8.70412       16.28668
C         -2.78072        8.16216       17.74334
H         -2.49756        9.82416       13.61977
H         -4.43224        7.50688       13.96101
H         -3.74448        9.88801       15.77478
H         -2.09097        7.95712       15.74195
H         -3.42104        6.82357       16.16316
H         -6.20119        9.41947       15.84237
H         -5.87360        7.67433       16.16404
H         -5.43309        8.95317       17.36503
H         -2.38629        9.19387       17.85937
H         -3.68514        8.03796       18.37068
H         -2.01583        7.44776       18.11473
N         -6.35429        8.95367       12.82585
C         -6.71079        7.53919       12.69420
C         -5.73685        6.79737       11.79273
O         -5.20770        5.77199       12.19870
C         -8.16689        7.35553       12.19388
C         -8.45190        7.85279       10.79854
O         -8.81965        7.06874        9.93824
O         -8.34115        9.15952       10.49380
H         -7.02317        9.65406       12.47441
H         -6.70569        7.07567       13.70644
H         -8.85865        7.86603       12.89834
H         -8.39854        6.26724       12.23307
N         -5.42309        7.29134       10.56497
C         -4.45089        6.68175        9.67812
C         -4.92525        5.41438        9.00821
O         -6.02920        4.94537        9.24722
H         -5.82769        8.19282       10.27243
H         -3.49971        6.50117       10.21793
H         -4.24770        7.40148        8.85487
N         -4.11767        4.86307        8.06092
C         -4.50820        3.76750        7.17859
C         -4.70385        2.40735        7.84380
O         -5.18289        1.52408        7.14597
C         -3.53401        3.68348        5.96743
C         -2.06053        3.67641        6.31516
O         -1.34426        4.58248        5.91924
O         -1.51417        2.69691        7.04985
H         -3.22204        5.34311        7.88375
H         -5.50092        4.02671        6.74602
H         -3.70909        4.58958        5.34627
H         -3.77944        2.80340        5.33440
N         -4.39411        2.12941        9.14639
C         -4.62931        0.80261        9.72566
C         -3.79448       -0.31491        9.09636
O         -3.99888       -1.46875        9.44107
H         -4.00581        2.86700        9.75172
H         -5.70789        0.55862        9.61083
H         -4.40035        0.82395       10.81318
N         -2.81827       -0.03372        8.19166
C         -1.92618       -0.97416        7.52562
C         -1.05364       -1.72609        8.51194
O         -0.82538       -2.91699        8.34263
C         -2.65626       -1.88965        6.51859
C         -3.47033       -1.07532        5.49737
C         -4.05287       -1.91072        4.38358
N         -4.80754       -1.31875        3.42925
O         -3.84283       -3.11394        4.32617
H         -2.64697        0.94364        7.96806
H         -1.21803       -0.35443        6.92898
H         -3.33020       -2.59922        7.04616
H         -1.88182       -2.47387        5.97308
H         -2.81848       -0.30345        5.03416
H         -4.30314       -0.57020        6.02665
H         -4.99662       -0.30591        3.46281
H         -5.20430       -1.87190        2.65526
N         -0.51843       -1.06599        9.57591
C          0.41048       -1.66888       10.52530
C          1.66161       -0.80618       10.72800
O          2.51942       -1.22439       11.49152
C         -0.30092       -1.92493       11.88882
C         -0.86177       -0.64111       12.52595
C         -1.42357       -2.96252       11.73691
H         -0.81878       -0.09364        9.73789
H          0.76075       -2.65569       10.14822
H          0.44329       -2.36030       12.59223
H         -0.05532        0.10397       12.68346
H         -1.65365       -0.18890       11.89215
H         -1.30953       -0.87372       13.51577
H         -2.22024       -2.59486       11.05896
H         -1.01591       -3.91152       11.32766
H         -1.87918       -3.18420       12.72572
N          1.81164        0.42460       10.14253
C          2.88713        1.35312       10.48553
C          3.59311        1.84406        9.20876
O          3.29567        1.33010        8.13983
C          2.21595        2.49237       11.29212
C          3.11910        3.28407       12.21257
N          2.60067        4.31151       12.91795
O          4.29336        2.98393       12.36755
H          1.08994        0.79084        9.50924
H          3.62443        0.85850       11.15250
H          1.46950        2.04216       11.98373
H          1.65552        3.15240       10.59532
H          1.60987        4.56166       12.80697
H          3.18685        4.85589       13.56753
N          4.50943        2.86050        9.23667
C          5.19739        3.38462        8.05756
C          6.71064        3.40622        8.27496
O          7.17714        3.04950        9.34755
C          4.63537        4.78006        7.65694
C          4.58657        5.84999        8.72960
C          3.65031        5.76319        9.77430
C          5.41593        6.98299        8.65796
C          3.55195        6.77375       10.73292
C          5.31412        7.99697        9.61992
C          4.38310        7.89616       10.65824
O          4.28607        8.88613       11.56848
H          4.72035        3.32296       10.12280
H          5.01805        2.72418        7.18128
H          3.59451        4.65528        7.28606
H          5.21395        5.15315        6.78675
H          2.97509        4.92478        9.83349
H          6.13634        7.08701        7.85620
H          2.81938        6.69137       11.52499
H          5.95185        8.86900        9.55445
H          3.64748        8.85713       12.29562
N          7.53933        3.80253        7.26228
C          8.99673        3.84773        7.34633
C          9.46906        5.28333        7.10743
O          9.87870        5.59321        5.99667
C          9.61121        2.89970        6.29244
C          9.31099        1.42380        6.57668
C          9.97001        0.54892        5.54829
O         10.90623       -0.34457        5.92122
O          9.66346        0.64480        4.37033
H          7.12025        4.08091        6.36289
H          9.37158        3.49468        8.32565
H         10.71766        3.02662        6.30959
H          9.24127        3.17300        5.27876
H          8.21618        1.23867        6.56506
H          9.70573        1.16162        7.58300
N          9.42872        6.25100        8.07066
C          9.03305        6.02219        9.45645
C         10.04203        5.15283       10.19782
O         11.08685        4.82880        9.64692
C          8.83321        7.36437       10.19126
C         10.11067        8.19360       10.41624
C          9.74071        9.45742       11.13366
O         10.16233        9.66651       12.39378
O          9.00185       10.27163       10.60195
H          9.69277        7.20647        7.78435
H          8.04314        5.52388        9.44929
H          8.37740        7.16147       11.18434
H          8.11017        7.96604        9.60504
H         10.61492        8.45038        9.46128
H         10.82051        7.61303       11.04383
N          9.79174        4.74343       11.47134
C         10.72790        3.92675       12.21332
H         11.69509        4.46227       12.32414
H         10.32378        3.71064       13.22497
H         10.89584        2.96465       11.68389
H          8.90979        5.01420       11.93088
Ca         9.23104       11.35442       13.56736
O         10.86098       10.67988       15.97455
H         10.02888       11.05118       16.36265
H         11.53254       11.39718       16.09558
O          7.56299       13.25599       11.84988
H          8.09355       13.88047       11.29409
H          6.62505       13.40939       11.57262
O          6.91285        9.17189       13.05904
H          6.89105        9.48362       12.11970
H          6.98283        8.18679       12.99113
O          9.15638       14.00240       14.90667
H          9.89895       14.31971       15.47925
H          8.37962       13.93744       15.51727
O         11.29667       12.74617       12.10316
H         11.56362       13.62098       12.48180
H         11.66473       12.74408       11.18454

Ca 1.0



