%chk=apoCaM-CA-Ng.loop2.water3.frame624.chk
%nprocshared=20
%mem=10GB
%nosave
#b3lyp/svp scf=(tight,noincore,xqc) Test 
#IOP(5/87=12) Density=Current Pop=(MK,readradii) iop(6/33=2) iop(6/42=6)

apoCaM-CA-Ng.loop2.water3.frame624 

   -2  1 
C         67.24156       35.29229       -6.88589
C         66.99858       36.73782       -7.21550
O         65.89270       37.07305       -7.61419
H         68.28258       35.12265       -6.53829
H         66.54668       34.96907       -6.08266
H         67.06652       34.67068       -7.78884
N         67.99507       37.65732       -7.07814
C         67.82026       39.07275       -7.38858
C         66.78189       39.68426       -6.46272
O         66.94829       39.61392       -5.25270
C         69.17175       39.81204       -7.25718
C         69.13409       41.25717       -7.69256
O         70.26256       41.98881       -7.63778
O         68.10877       41.77263       -8.11044
H         68.91949       37.33086       -6.75496
H         67.49959       39.16058       -8.45081
H         69.91799       39.29761       -7.90119
H         69.52637       39.75978       -6.20480
N         65.69001       40.32420       -6.97065
C         64.64972       40.89623       -6.11913
C         63.82738       39.77961       -5.48441
O         63.83953       38.68440       -6.02875
C         63.73121       41.78616       -6.96792
H         65.61154       40.42302       -7.99482
H         65.14082       41.53634       -5.35812
H         63.24132       41.18774       -7.76599
H         62.94159       42.26918       -6.36373
H         64.33125       42.59023       -7.44470
N         63.02942       39.94000       -4.38644
C         62.91095       41.15051       -3.57291
C         64.20494       41.47385       -2.82962
O         65.17455       40.73478       -2.93649
C         61.71508       41.00434       -2.58940
C         61.83084       39.89658       -1.56953
O         60.81561       39.68961       -0.70954
O         62.82007       39.18412       -1.50839
H         62.45844       39.12281       -4.11629
H         62.65794       42.00617       -4.22617
H         60.79821       40.82130       -3.19109
H         61.55487       41.95528       -2.04102
N         64.27006       42.56780       -2.01998
C         65.44935       42.92243       -1.24926
C         66.52837       43.57511       -2.09363
O         66.33342       43.72789       -3.29112
H         63.43163       43.15397       -1.89734
H         65.81851       42.02987       -0.70009
H         65.14361       43.68445       -0.50756
N         67.68860       44.05596       -1.54996
C         68.08741       43.89297       -0.15401
C         69.45475       43.22058       -0.11137
O         70.34371       43.68731        0.59003
C         68.12291       45.27281        0.54742
C         66.77858       45.95517        0.57188
N         65.74347       45.42268        1.26179
O         66.62904       47.01330       -0.02079
H         68.34269       44.55842       -2.17166
H         67.38239       43.23523        0.38991
H         68.85172       45.92111        0.01060
H         68.46708       45.16352        1.59892
H         65.85403       44.53990        1.78135
H         64.82823       45.89671        1.28026
N         69.71433       42.14167       -0.90420
C         71.03147       41.53231       -0.97883
C         71.34176       40.61019        0.17831
O         72.46293       40.12086        0.21931
H         68.98923       41.80930       -1.55612
H         71.80022       42.33333       -1.06142
H         71.09948       40.91841       -1.90210
N         70.41218       40.27849        1.12346
C         70.68557       39.34451        2.21483
C         69.79442       38.12530        2.11026
O         68.87229       38.11982        1.30252
C         70.44124       40.02956        3.57641
C         71.33793       41.25161        3.76820
O         69.09305       40.42289        3.66644
H         69.46197       40.67427        1.06123
H         71.73846       38.98835        2.16525
H         70.68014       39.29211        4.37929
H         68.82686       40.34973        4.61961
H         72.40614       40.95584        3.70860
H         71.12672       42.01929        2.99364
H         71.14503       41.69795        4.76636
N         70.01418       37.03714        2.90381
C         69.11595       35.89457        2.88063
C         67.85860       36.27201        3.64263
O         67.92586       36.43130        4.85417
C         69.76397       34.59869        3.46730
C         68.73508       33.42828        3.44330
C         71.03235       34.23279        2.66826
C         69.25691       32.10482        4.00593
H         70.83529       37.02626        3.52882
H         68.88526       35.66057        1.82085
H         70.06234       34.78759        4.52247
H         68.38127       33.25316        2.40727
H         67.85292       33.70684        4.05712
H         70.77921       34.00261        1.61119
H         71.76778       35.06247        2.68339
H         71.54644       33.35745        3.11406
H         69.60294       32.23815        5.05214
H         68.43722       31.35466        3.99442
H         70.08170       31.69749        3.38700
N         66.67201       36.40559        2.99197
C         65.39498       36.60330        3.65756
C         64.47974       35.39768        3.43449
O         63.38356       35.39987        3.97683
C         64.77083       37.94586        3.22866
C         64.50931       38.05492        1.75411
O         65.12396       39.01390        1.03435
O         63.72447       37.29728        1.20732
H         66.65694       36.32656        1.97119
H         65.54161       36.66765        4.75828
H         65.47157       38.75790        3.52524
H         63.81798       38.10738        3.77681
N         64.89296       34.29463        2.73038
C         64.18891       33.02208        2.77154
C         64.39392       32.25357        1.46041
O         65.02352       31.20425        1.48685
C         64.73871       32.25479        4.00140
C         64.10409       30.90165        4.21525
C         64.89785       29.74148        4.17426
C         62.72672       30.78226        4.46806
C         64.32262       28.48474        4.37518
C         62.15553       29.52151        4.67055
C         62.95253       28.37417        4.62305
H         65.84875       34.26218        2.35111
H         63.10054       33.17014        2.93574
H         64.56793       32.86155        4.91757
H         65.83908       32.14459        3.88029
H         65.96218       29.80863        3.98378
H         62.09641       31.66134        4.51201
H         64.94081       27.59709        4.33925
H         61.09472       29.43341        4.86573
H         62.50958       27.39939        4.77988
N         63.87530       32.67745        0.26396
C         63.94028       31.88085       -0.95781
C         65.33125       31.59870       -1.49995
O         65.43286       30.81673       -2.43553
C         63.14080       32.70007       -1.97315
C         62.11816       33.37296       -1.08033
C         62.98783       33.80824        0.09828
H         63.42565       30.91818       -0.73389
H         63.78984       33.50949       -2.38173
H         62.73211       32.11040       -2.82169
H         61.53783       34.18827       -1.55709
H         61.40587       32.59103       -0.72959
H         63.59810       34.69951       -0.16759
H         62.34292       34.01934        0.97540
N         66.44392       32.20812       -0.99839
C         67.78461       31.90378       -1.48490
C         68.12431       30.47698       -1.10630
O         68.40291       29.67851       -1.98968
C         68.85478       32.85022       -0.89347
C         68.82724       34.29531       -1.42604
C         67.59072       35.06288       -1.08763
O         66.88783       35.69688       -2.04051
O         67.24722       35.17285        0.07122
H         66.33469       32.89865       -0.24659
H         67.82375       32.01916       -2.59199
H         69.85486       32.45418       -1.17714
H         68.80148       32.84953        0.21327
H         68.97824       34.30282       -2.52638
H         69.67997       34.83386       -0.95788
N         68.10962       30.09193        0.20233
C         68.42001       28.74924        0.64709
H         69.27659       28.78627        1.35218
H         67.53942       28.32542        1.17373
H         68.68595       28.07488       -0.19365
H         67.85824       30.78061        0.92764
Ca        65.30092       37.12891       -1.31199
O         67.74038       39.25109       -1.43568
H         67.86162       39.63339       -2.34072
H         68.54069       38.68464       -1.29952
O         65.41158       37.24445       -4.13720
H         66.34508       37.23292       -4.46235
H         64.92016       36.65562       -4.76224
O         62.98222       36.30579       -2.75375
H         62.28045       36.42159       -2.06558
H         62.65419       35.57638       -3.33611

Ca 1.0



