%chk=apoCaM-CA-Ng.loop4.water4.frame16.chk
%nprocshared=20
%mem=10GB
%nosave
#b3lyp/svp scf=(tight,noincore,xqc) Test 
#IOP(5/87=12) Density=Current Pop=(MK,readradii) iop(6/33=2) iop(6/42=6)

apoCaM-CA-Ng.loop4.water4.frame16 

   -3  1 
C         86.06394       46.71999       69.79290
C         87.19302       47.67625       70.02596
O         87.00777       48.86233       69.81267
H         85.16346       47.25355       69.42332
H         86.36209       45.96142       69.04156
H         85.80418       46.21845       70.74846
N         88.38706       47.21935       70.50583
C         89.54199       48.05205       70.84396
C         89.16527       49.10725       71.86856
O         89.39527       50.28482       71.65221
C         90.31244       48.56582       69.59653
C         89.49887       49.36916       68.62644
O         88.90620       50.51236       69.01001
O         89.34335       48.96497       67.48625
H         88.46524       46.21089       70.70797
H         90.27923       47.39944       71.36374
H         90.70799       47.67546       69.05900
H         91.18639       49.16832       69.92764
N         88.57462       48.70262       73.02988
C         88.21294       49.52254       74.18486
C         89.45732       49.93545       74.96138
O         89.64944       49.42711       76.05749
C         87.26138       50.71035       73.85274
C         86.73622       51.41728       75.13157
C         86.07905       50.27261       72.96963
C         85.97093       50.51618       76.10161
H         88.36190       47.69641       73.11761
H         87.65085       48.83033       74.84767
H         87.81700       51.47103       73.26583
H         86.05621       52.23186       74.81352
H         87.57193       51.87390       75.69583
H         85.47644       49.47180       73.44118
H         85.42160       51.14243       72.75226
H         86.44680       49.89653       71.99910
H         85.55335       51.13164       76.92631
H         85.14570       50.00190       75.57957
H         86.63225       49.75413       76.55854
N         90.36185       50.82159       74.45720
C         91.61209       51.15484       75.12654
C         91.37237       51.78125       76.50365
O         91.85891       51.19027       77.45780
C         92.52717       51.98856       74.20227
C         92.98628       51.22975       72.97835
O         93.72366       51.77849       72.17550
O         92.60845       49.95404       72.75788
H         90.17914       51.26287       73.55101
H         92.17628       50.20908       75.30416
H         93.43707       52.28697       74.76707
H         91.99911       52.88546       73.84118
N         90.61981       52.89514       76.76746
C         89.91139       53.72844       75.81147
C         90.81320       54.73193       75.13075
O         92.00812       54.73047       75.39343
H         90.47953       53.13641       77.76153
H         89.16467       54.32780       76.37370
H         89.36217       53.09639       75.09555
N         90.33737       55.66990       74.25897
C         88.92235       55.87139       73.92296
C         88.33596       54.66108       73.19193
O         89.11212       53.84945       72.70882
C         88.78033       57.14837       73.04928
C         89.11388       58.40389       73.81862
O         90.22735       58.57740       74.28748
O         88.17475       59.35487       73.98506
H         91.03689       56.30684       73.84726
H         88.36586       56.02251       74.86985
H         87.75256       57.26906       72.66628
H         89.43434       57.06694       72.15437
N         86.98782       54.42841       73.06504
C         85.92829       55.24550       73.64136
C         85.58411       54.83290       75.05229
O         86.48476       54.73004       75.87211
H         86.68827       53.58625       72.54976
H         85.02965       55.20632       72.98800
H         86.21635       56.30492       73.67966
N         84.27789       54.70605       75.43846
C         83.89045       54.52871       76.83935
C         82.80980       53.47435       77.06628
O         82.50712       53.22810       78.22773
C         83.32961       55.86941       77.35976
C         84.32647       57.03239       77.22721
C         83.70331       58.32576       77.67855
N         82.63347       58.83835       77.02534
O         84.17506       58.92462       78.63291
H         83.54306       54.90760       74.74443
H         84.77666       54.24819       77.45105
H         83.05015       55.77003       78.43255
H         82.40974       56.10329       76.78058
H         84.64185       57.16636       76.17117
H         85.22766       56.80536       77.83829
H         82.23404       58.35663       76.20685
H         82.20695       59.72515       77.33055
N         82.11944       52.87961       76.04861
C         80.95366       52.02121       76.27321
C         79.66592       52.67613       75.77532
O         78.62306       52.06008       75.93291
C         81.15382       50.60143       75.68203
C         82.25782       49.86549       76.44420
C         81.44569       50.62081       74.17738
H         82.36649       53.09767       75.07424
H         80.77555       51.87811       77.36304
H         80.22000       50.01657       75.83835
H         82.40578       48.84303       76.03572
H         83.19750       50.43578       76.38055
H         81.98751       49.77284       77.51812
H         81.51611       49.58134       73.79256
H         80.62104       51.13445       73.64248
H         82.40428       51.13373       73.95469
N         79.63920       53.95003       75.26837
C         78.38715       54.66190       75.00724
C         78.29564       55.30184       73.63009
O         77.30110       55.98445       73.40429
C         78.20552       55.75729       76.09022
C         79.20773       56.89590       76.05972
N         79.09293       57.90798       76.94893
O         80.10837       56.92494       75.23381
H         80.51434       54.48087       75.18465
H         77.51909       53.97605       75.11045
H         78.24099       55.27727       77.09209
H         77.19395       56.20410       75.97156
H         78.33526       57.90997       77.64720
H         79.75539       58.69705       76.93419
N         79.25981       55.19009       72.67022
C         79.21511       56.03532       71.47722
C         80.16897       55.56878       70.39907
O         81.32263       55.29405       70.69868
C         79.55792       57.48819       71.88608
C         79.40492       58.47496       70.75450
C         80.49979       59.24048       70.32022
C         78.15384       58.65760       70.14106
C         80.34304       60.17475       69.29164
C         78.00043       59.58856       69.11143
C         79.09070       60.35279       68.68517
O         78.92153       61.25653       67.69930
H         80.06276       54.55820       72.81737
H         78.18745       56.00159       71.05426
H         80.59467       57.50970       72.29126
H         78.88231       57.82579       72.69879
H         81.47249       59.12214       70.78130
H         77.29372       58.08486       70.46350
H         81.19346       60.76312       68.97118
H         77.02984       59.72048       68.65009
H         79.64531       61.81635       67.38448
N         79.72986       55.46944       69.10531
C         80.53252       55.05948       67.95592
C         81.05964       53.63964       68.07444
O         81.84961       53.24635       67.22722
C         81.60005       56.11139       67.52613
C         82.71514       56.45945       68.52083
C         83.72035       57.38711       67.89794
O         83.37535       58.48426       67.48781
O         85.01212       57.01877       67.80302
H         78.74300       55.69697       68.90803
H         79.85813       55.02531       67.07037
H         81.07119       57.05350       67.26160
H         82.07962       55.73261       66.59502
H         83.22933       55.53208       68.84676
H         82.29498       56.98776       69.39751
N         80.60674       52.78270       69.03984
C         81.07624       51.41229       69.16619
C         79.94200       50.40749       68.94260
O         80.19556       49.21324       69.01690
C         81.70958       51.26378       70.56885
C         82.70542       50.09865       70.68145
C         83.91089       50.35725       69.81731
O         84.19233       49.59796       68.90575
O         84.67677       51.44412       70.03760
H         79.89950       53.09394       69.71989
H         81.85361       51.21669       68.39904
H         80.89492       51.17340       71.31794
H         82.27818       52.18734       70.81925
H         82.22224       49.13816       70.41156
H         83.05716       50.01760       71.73073
N         78.66579       50.80448       68.65391
C         77.58853       49.85698       68.45664
H         76.64428       50.39754       68.22826
H         77.82262       49.18101       67.60734
H         77.43531       49.25784       69.37942
H         78.42866       51.80233       68.56641
Ca        87.26413       51.38866       67.73599
O         88.05737       53.04960       70.12437
H         89.02300       52.86168       70.23825
H         88.00117       54.03665       70.08103
O         86.17151       48.78511       66.35353
H         87.15504       48.71066       66.28558
H         85.90129       49.19923       65.49621
O         87.91964       53.34860       65.75851
H         87.11266       53.91602       65.84130
H         87.68579       52.68447       65.06213
O         85.43996       53.87498       68.11158
H         84.50674       53.55545       68.19394
H         85.56914       54.47366       68.88947

Ca 1.0



