%chk=apoCaM-CA-Ng.loop1.water5.frame622.chk
%nprocshared=20
%mem=10GB
%nosave
#b3lyp/svp scf=(tight,noincore,xqc) Test 
#IOP(5/87=12) Density=Current Pop=(MK,readradii) iop(6/33=2) iop(6/42=6)

apoCaM-CA-Ng.loop1.water5.frame622 

   0  1 
C         66.74750       22.51721      104.62770
C         65.65259       23.53707      104.68077
O         65.07795       23.85387      103.64921
H         67.68980       22.97427      104.99815
H         66.48430       21.65111      105.26961
H         66.90709       22.16574      103.58657
N         65.32407       24.10829      105.87057
C         64.32518       25.16221      106.00826
C         64.99679       26.43639      106.51945
O         66.19840       26.44193      106.75183
C         63.14380       24.70147      106.90167
C         63.56205       24.48568      108.31782
O         64.37938       23.62684      108.60497
O         63.12407       25.31763      109.27090
H         65.84251       23.80594      106.70852
H         63.88517       25.40329      105.01647
H         62.68370       23.77324      106.50130
H         62.36001       25.48931      106.89058
N         64.26830       27.57566      106.65914
C         64.82510       28.88771      106.99788
C         65.41303       29.06514      108.40638
O         65.76704       30.19678      108.71035
C         63.84528       30.02420      106.58065
C         62.41195       30.00105      107.15211
C         61.58244       31.12099      106.48715
C         60.06685       31.00219      106.71838
N         59.69569       31.11455      108.12623
H         63.28085       27.51489      106.38525
H         65.69532       29.06623      106.32997
H         63.74316       29.94497      105.47625
H         64.31162       31.01254      106.78820
H         62.42073       30.11134      108.25694
H         61.92088       29.04299      106.89746
H         61.71586       31.05695      105.38392
H         61.95458       32.11508      106.81767
H         59.70416       30.03119      106.31197
H         59.56454       31.81400      106.14519
H         58.65300       31.07277      108.19924
H         60.09701       30.32053      108.67347
H         60.02669       32.02760      108.51255
N         65.69645       28.03243      109.26287
C         66.48552       28.25073      110.48214
C         67.37367       27.04148      110.89299
O         66.76301       25.96691      111.56002
C         65.67537       28.87076      111.63640
C         64.40175       28.15424      111.96556
O         63.50166       28.09415      111.14206
O         64.22093       27.62389      113.18833
H         65.48556       27.06774      108.98697
H         67.25357       29.01618      110.26518
H         65.39802       29.91054      111.36696
H         66.33149       28.91942      112.53414
N         68.34997       26.59893      109.87382
C         69.46143       27.56966      109.78531
C         69.21810       28.60691      108.71445
O         68.41516       28.37709      107.82072
H         68.77110       25.70507      110.22095
H         70.42158       27.06249      109.54295
H         69.62398       28.06622      110.77111
N         69.83842       29.81814      108.78810
C         69.55860       30.89863      107.84424
C         70.02731       30.56448      106.43273
O         70.68954       29.55549      106.23474
C         70.16899       32.23951      108.33464
C         71.67834       32.27008      108.36993
O         72.28566       33.08032      107.68811
O         72.36850       31.44326      109.17802
H         70.46187       29.99032      109.59028
H         68.45567       31.04215      107.82464
H         69.78510       32.46452      109.35344
H         69.81594       33.05702      107.66958
N         69.73735       31.40592      105.39930
C         70.26472       31.22637      104.05557
C         69.71462       30.04440      103.27722
O         70.20329       29.82874      102.17677
H         69.18702       32.25748      105.58795
H         71.37051       31.14675      104.12339
H         70.03125       32.13391      103.45588
N         68.67414       29.27723      103.71485
C         68.10445       28.21263      102.88701
C         69.05574       27.03329      102.78059
O         69.42049       26.45779      103.79746
C         66.73800       27.72623      103.42485
C         65.70206       28.85375      103.42145
O         66.24022       26.69955      102.60201
H         68.23041       29.50103      104.61716
H         67.89532       28.62248      101.87251
H         66.84935       27.35821      104.46789
H         66.64315       25.84874      102.91470
H         65.55532       29.23951      102.38965
H         64.73023       28.46378      103.79014
H         66.01293       29.69699      104.06949
N         69.43110       26.57529      101.55400
C         70.25896       25.38967      101.35402
C         71.65733       25.64459      101.87744
O         72.15677       24.85319      102.66305
C         70.30791       24.97154       99.84792
C         68.89744       24.77100       99.21776
C         71.15077       23.69148       99.66053
C         67.98748       23.78197       99.95411
H         69.07381       27.07566      100.72806
H         69.81288       24.53269      101.90674
H         70.80556       25.77712       99.26307
H         69.02099       24.43046       98.16634
H         68.35996       25.73895       99.16715
H         72.19496       23.84797      100.00254
H         70.72616       22.83988      100.23160
H         71.19625       23.41333       98.58601
H         68.44035       22.77207      100.00547
H         67.76285       24.14146      100.97992
H         67.02221       23.70211       99.41129
N         72.33296       26.76024      101.48395
C         73.69746       27.07256      101.89672
C         74.52762       27.40054      100.65366
O         73.98327       27.42826       99.55977
C         73.65664       28.26114      102.90086
C         72.77564       27.95492      104.12213
O         74.94200       28.61373      103.34560
H         71.84173       27.44455      100.88908
H         74.15795       26.19984      102.40963
H         73.22019       29.14641      102.38927
H         75.30971       27.83913      103.84833
H         73.15371       27.06154      104.66465
H         72.78572       28.82161      104.81410
H         71.72676       27.77089      103.81842
N         75.85937       27.68069      100.75744
C         76.68335       28.10926       99.63079
C         77.83417       27.13882       99.41502
O         77.98679       26.64828       98.30324
C         77.16216       29.56110       99.87527
C         77.88203       30.14113       98.65547
O         78.01166       29.63882      100.99211
H         76.30463       27.62594      101.68026
H         76.07929       28.14147       98.69627
H         76.25896       30.20136      100.02972
H         77.46326       29.94106      101.76234
H         78.16481       31.19662       98.85485
H         78.80082       29.56331       98.42346
H         77.20934       30.12399       97.77060
N         78.66358       26.78641      100.43886
C         79.76098       25.83899      100.28322
C         80.13487       25.25704      101.63321
O         80.44594       26.00801      102.54914
C         80.98349       26.51645       99.63686
C         82.11168       25.49647       99.39577
C         83.36261       26.16049       98.81157
C         84.52369       25.16746       98.61907
N         84.23365       24.15260       97.60367
H         78.46437       27.15431      101.38095
H         79.42334       25.00583       99.62587
H         81.34322       27.33187      100.30336
H         80.69142       26.96485       98.66309
H         81.72927       24.71293       98.70902
H         82.40051       25.01902      100.35696
H         83.70263       26.94218       99.52597
H         83.12275       26.65123       97.84387
H         84.76469       24.67399       99.58749
H         85.41993       25.74250       98.29856
H         83.43750       23.54345       97.89552
H         84.01722       24.61216       96.68946
H         85.07626       23.54553       97.48276
N         80.10921       23.90829      101.81824
C         80.37662       23.27606      103.10216
C         79.06984       23.04763      103.85235
O         78.95863       23.59812      104.93882
C         81.25662       22.01074      102.98627
C         82.61640       22.31521      102.33680
C         83.52901       21.12358      102.40923
O         83.89836       20.63024      103.60766
O         83.96012       20.61221      101.38842
H         79.85066       23.32242      101.01493
H         80.97537       23.97447      103.73227
H         80.75904       21.20052      102.41748
H         81.43120       21.63684      104.01984
H         83.11326       23.15389      102.86949
H         82.46077       22.61208      101.27634
N         78.00390       22.32111      103.39535
C         77.89597       21.61025      102.13752
H         77.07943       22.06192      101.53420
H         78.81018       21.61057      101.53571
H         77.64599       20.54934      102.33826
H         77.16443       22.28631      103.99439
Ca        64.68547       25.48976      110.83101
O         66.79542       24.26842      113.82924
H         67.61722       24.79318      113.65655
H         67.09705       23.32630      113.80789
O         63.68085       24.68220      114.29544
H         63.38680       25.57035      114.61738
H         63.85204       24.16535      115.12236
O         66.52040       22.71479      110.85027
H         66.34953       22.02289      110.16299
H         67.18968       22.30416      111.45324
O         61.58961       24.21704      111.66575
H         61.15132       24.96472      111.18669
H         61.46366       23.43444      111.07215
O         63.83396       22.03192      112.67593
H         63.47374       21.96773      113.59604
H         64.52262       21.32218      112.63022

Ca 1.0



