%chk=apoCaM-CA-Ng.loop3.water6.frame462.chk
%nprocshared=20
%mem=10GB
%nosave
#b3lyp/svp scf=(tight,noincore,xqc) Test 
#IOP(5/87=12) Density=Current Pop=(MK,readradii) iop(6/33=2) iop(6/42=6)

apoCaM-CA-Ng.loop3.water6.frame462 

   0  1 
C         54.71266       39.05023       96.37002
C         53.89823       37.96350       97.00806
O         53.55227       38.08730       98.17096
H         55.67820       38.63323       96.01430
H         54.15779       39.47202       95.50564
H         54.92081       39.86809       97.09289
N         53.54423       36.86696       96.27732
C         52.73349       35.73987       96.74173
C         53.43247       34.82526       97.75455
O         52.83031       33.82132       98.10897
C         51.36607       36.23608       97.28631
C         50.38182       35.11212       97.47575
O         50.01835       34.44899       96.51806
O         49.89718       34.82775       98.69859
H         53.83577       36.84582       95.28764
H         52.53644       35.11178       95.84411
H         50.91445       36.95686       96.57181
H         51.51140       36.75805       98.25689
N         54.66532       35.08959       98.28506
C         55.25512       34.26897       99.34728
C         55.22341       35.00051      100.68618
O         55.61911       34.42067      101.68858
C         56.69598       33.86132       98.99617
C         56.78278       33.09239       97.66947
C         58.17545       32.47784       97.43554
C         59.34558       33.47732       97.36780
N         59.23081       34.39479       96.23432
H         55.18003       35.93202       97.99525
H         54.66130       33.34055       99.49603
H         57.07354       33.20710       99.81319
H         57.33461       34.76937       98.94513
H         56.49735       33.75553       96.82502
H         56.05763       32.25025       97.69855
H         58.14965       31.89278       96.49099
H         58.38059       31.76649       98.26517
H         60.28511       32.89165       97.25732
H         59.42865       34.05209       98.31510
H         59.16802       33.85473       95.34084
H         58.39428       35.01099       96.34133
H         60.08460       34.99788       96.20128
N         54.73598       36.26866      100.78054
C         54.60109       37.02200      102.01977
C         53.62045       36.32939      102.96088
O         52.83647       35.49658      102.52495
C         54.11579       38.44549      101.63034
C         53.71730       39.35314      102.74776
O         52.56429       39.73570      102.79525
O         54.56321       39.77651      103.69901
H         54.42974       36.73486       99.92399
H         55.59577       37.08339      102.51299
H         53.20974       38.32214      100.99128
H         54.89410       38.94438      101.01434
N         53.64291       36.61520      104.29227
C         52.70841       36.05205      105.25336
C         51.32974       36.60226      105.00868
O         50.38817       35.84073      104.83818
H         54.35961       37.26505      104.64650
H         53.00817       36.36519      106.27407
H         52.72982       34.94108      105.22245
N         51.15765       37.95285      104.96028
C         49.88411       38.61205      104.70290
C         49.32088       38.30472      103.30161
O         48.23462       38.78507      103.01589
C         50.02166       40.15587      104.88380
C         50.35035       40.66283      106.31163
N         49.34340       40.20944      107.26409
O         51.61535       40.28610      106.78067
H         51.98823       38.53545      105.12026
H         49.14130       38.25127      105.44731
H         49.05122       40.62073      104.62331
H         50.76089       40.56966      104.17574
H         48.41900       40.61988      107.00393
H         49.59715       40.57338      108.21086
N         49.96039       37.51405      102.38202
C         49.40482       37.21688      101.06434
C         49.35176       38.43970      100.17350
O         48.55199       38.47902       99.24866
H         50.86707       37.09121      102.59846
H         48.39081       36.77843      101.18955
H         50.04034       36.46510      100.55721
N         50.18356       39.48271      100.41682
C         50.15946       40.77009       99.75288
C         49.80580       41.78623      100.81330
O         50.46639       41.82148      101.84413
C         51.55134       41.09971       99.16775
C         51.61905       42.55813       98.76055
C         50.83595       43.06183       97.70775
C         52.43037       43.44133       99.49438
C         50.86083       44.42858       97.40354
C         52.44503       44.80428       99.19581
C         51.65691       45.30436       98.15115
O         51.64982       46.62201       97.86554
H         50.86150       39.38758      101.18026
H         49.40705       40.80558       98.93282
H         51.79793       40.43220       98.31385
H         52.30785       40.91299       99.96204
H         50.19780       42.40221       97.13349
H         53.03066       43.08047      100.32053
H         50.24819       44.81125       96.59695
H         53.06031       45.47103       99.78672
H         52.16936       47.26036       98.37559
N         48.80419       42.67954      100.61794
C         48.45198       43.65404      101.63814
C         47.75769       42.91886      102.76838
O         48.16180       43.06703      103.91251
C         47.58741       44.81953      101.07654
C         48.32764       45.49846       99.88635
C         47.33159       45.84810      102.20326
C         47.57612       46.67301       99.26107
H         48.29518       42.66854       99.72041
H         49.38394       44.14145      102.01102
H         46.61239       44.42038      100.71947
H         48.48109       44.76028       99.07416
H         49.32884       45.85564      100.21416
H         48.29209       46.28598      102.55359
H         46.66674       46.66569      101.86376
H         46.83245       45.38297      103.07562
H         46.57113       46.35068       98.91763
H         47.47715       47.51486       99.97534
H         48.15054       47.04801       98.38736
N         46.72732       42.06098      102.49977
C         46.03705       41.32094      103.54954
C         45.13502       42.21936      104.37109
O         44.68223       41.77906      105.41897
C         45.19505       40.17658      102.95822
O         44.18438       40.68980      102.13324
H         46.46409       41.89688      101.51629
H         46.80377       40.86012      104.20727
H         44.74173       39.59266      103.79214
H         45.85170       39.50571      102.36370
H         43.62819       39.91327      101.86435
N         44.77531       43.46361      103.92923
C         43.83505       44.33780      104.61417
C         44.33971       44.83181      105.95892
O         43.57572       45.50651      106.63499
C         42.45662       43.66522      104.72109
H         45.13217       43.80348      103.02571
H         43.68376       45.24638      103.98888
H         41.71440       44.37724      105.13968
H         42.11090       43.36801      103.70755
H         42.47260       42.76812      105.37027
N         45.62394       44.61821      106.38391
C         46.13197       45.16967      107.63278
C         47.13667       46.26357      107.35013
O         47.60256       46.39717      106.22679
C         46.75027       44.06761      108.49415
H         46.29197       44.11431      105.78465
H         45.30289       45.63626      108.20763
H         45.99218       43.28648      108.71301
H         47.60526       43.59657      107.96173
H         47.11689       44.48459      109.45651
N         47.43148       47.15833      108.33411
C         48.29209       48.32247      108.16569
C         47.82615       49.16890      106.98403
O         48.64764       49.57995      106.17445
C         49.77374       47.90548      108.02208
C         50.25573       47.02907      109.18540
C         51.70232       46.66836      109.00398
O         52.03592       45.49940      108.89225
O         52.64009       47.63452      108.96547
H         46.96439       47.05047      109.24798
H         48.19585       48.93754      109.08904
H         50.39828       48.82554      107.97708
H         49.91109       47.34086      107.07399
H         49.64816       46.09787      109.22420
H         50.13574       47.57003      110.14815
N         46.49837       49.41129      106.79072
C         45.98214       50.14010      105.64797
H         45.35709       50.98585      105.99893
H         46.78869       50.54450      105.00020
H         45.35645       49.45937      105.03171
H         45.81076       49.02060      107.45233
Ca        53.29403       40.74576      105.29525
O         55.65304       42.81480      103.37671
H         55.73005       43.75705      103.08238
H         56.50738       42.39732      103.10184
O         54.24531       38.59611      106.92966
H         54.82389       38.11412      107.56964
H         53.33173       38.48709      107.29429
O         56.86917       41.33032      106.00359
H         57.39301       41.15630      105.18167
H         57.50797       41.77680      106.61442
O         52.74181       43.30043      103.50384
H         52.67705       44.26071      103.27250
H         51.80928       43.02498      103.68612
O         54.66518       41.53001      108.27838
H         54.25182       40.66928      108.53697
H         54.98217       41.91656      109.13269
O         54.41393       43.96642      106.25578
H         53.77346       44.68742      106.03159
H         54.64443       44.12702      107.20522

Ca 1.0



