%chk=apoCaM-CA-Ng.loop1.water5.frame113.chk
%nprocshared=20
%mem=10GB
%nosave
#b3lyp/svp scf=(tight,noincore,xqc) Test 
#IOP(5/87=12) Density=Current Pop=(MK,readradii) iop(6/33=2) iop(6/42=6)

apoCaM-CA-Ng.loop1.water5.frame113 

   0  1 
C         51.88617       53.50391       99.49719
C         50.68313       52.68448       99.85495
O         49.96131       53.04805      100.77252
H         52.80122       52.88483       99.61158
H         51.80613       53.84428       98.44379
H         51.97101       54.39204      100.15865
N         50.41990       51.54102       99.16518
C         49.29653       50.65899       99.46161
C         49.76380       49.29550       99.95232
O         48.91711       48.44693      100.19208
C         48.35471       50.54355       98.23954
C         48.96294       49.87463       97.03390
O         48.42528       48.73505       96.55897
O         49.91395       50.37380       96.45521
H         51.06798       51.27496       98.40920
H         48.68788       51.08456      100.27455
H         48.00176       51.55729       97.95023
H         47.46052       49.95936       98.54760
N         51.08683       49.01143      100.13609
C         51.58732       47.70183      100.52625
C         52.42071       47.75709      101.79203
O         53.21790       48.67752      101.91041
C         52.50737       47.17286       99.41273
C         51.72423       46.72503       98.18067
C         52.65861       46.01168       97.20013
C         51.87834       45.39276       96.03831
N         52.77939       44.66615       95.14510
H         51.79554       49.73681       99.95821
H         50.75616       46.99760      100.66988
H         53.04465       46.28575       99.79338
H         53.28404       47.92396       99.14742
H         51.21476       47.58628       97.69699
H         50.95797       45.99921       98.51417
H         53.18284       45.18789       97.73519
H         53.41813       46.72830       96.81875
H         51.34957       46.19050       95.47228
H         51.12044       44.68337       96.44188
H         53.48650       45.32064       94.73868
H         53.26754       43.90385       95.67056
H         52.22322       44.23768       94.37101
N         52.45953       46.74197      102.71559
C         51.62935       45.53230      102.77790
C         51.58205       44.73616      101.46533
O         50.51388       44.62303      100.88419
C         50.21205       45.85276      103.31401
C         50.20545       46.43743      104.70149
O         49.13865       46.65505      105.25234
O         51.35452       46.70460      105.35316
H         53.17179       46.82626      103.45810
H         52.06753       44.86581      103.54843
H         49.65499       44.89588      103.38946
H         49.66645       46.53393      102.62879
N         52.66133       44.12225      100.91200
C         53.96281       44.06216      101.54473
C         54.97717       43.27607      100.72068
O         54.69500       42.92273       99.58454
H         52.50820       43.63545      100.01541
H         53.82164       43.53616      102.51327
H         54.35708       45.08424      101.72612
N         56.18225       42.89747      101.23555
C         56.58386       43.16198      102.61128
C         56.26585       41.96440      103.48424
O         55.94309       40.89976      102.97272
C         58.05844       43.61375      102.71326
C         59.06014       42.56604      102.29394
O         59.10604       42.16803      101.14133
O         59.94576       42.09076      103.19000
H         56.76635       42.27966      100.65435
H         55.98203       43.99983      103.01621
H         58.26598       43.88544      103.77074
H         58.21145       44.52619      102.09730
N         56.26482       42.10438      104.83648
C         55.91015       41.04013      105.75626
C         54.50473       40.52250      105.53079
O         54.34988       39.32214      105.35536
H         56.50684       43.02204      105.24089
H         55.97017       41.43503      106.79304
H         56.64381       40.20888      105.66456
N         53.43099       41.36771      105.52850
C         52.04826       40.90605      105.39846
C         51.47267       41.37369      104.06934
O         51.41282       42.56521      103.82059
C         51.20634       41.40101      106.59333
C         51.78385       40.89695      107.92421
O         49.88915       40.93418      106.45203
H         53.59911       42.38079      105.62976
H         52.01445       39.79442      105.41610
H         51.21391       42.51658      106.59152
H         49.32210       41.48667      107.05117
H         51.16407       41.26265      108.76966
H         51.79735       39.78608      107.94658
H         52.81902       41.27131      108.07296
N         51.07638       40.45529      103.14417
C         50.73138       40.77490      101.75620
C         49.30589       41.29058      101.53992
O         48.92262       41.40097      100.38708
C         51.04796       39.54440      100.82966
C         50.23195       38.24108      101.08414
C         52.55221       39.20826      100.91484
C         48.72993       38.34476      100.81875
H         51.19091       39.46565      103.40035
H         51.41524       41.57443      101.39283
H         50.86420       39.85314       99.77620
H         50.39102       37.85395      102.11129
H         50.61005       37.46802      100.37950
H         53.16657       40.10086      100.66980
H         52.83702       38.85361      101.92793
H         52.81216       38.40852      100.18931
H         48.54472       38.71169       99.78642
H         48.26919       37.33999      100.92028
H         48.22756       38.99984      101.55348
N         48.44886       41.58822      102.55828
C         47.01943       41.87361      102.35011
C         46.68903       43.00310      101.36622
O         45.64588       42.92304      100.73348
C         46.28849       42.10580      103.69653
C         46.76642       43.37433      104.42396
O         46.48368       40.98614      104.52212
H         48.80009       41.52816      103.52356
H         46.57931       40.95218      101.90587
H         45.19997       42.21096      103.47495
H         45.79097       41.02526      105.23219
H         46.58467       44.27784      103.80651
H         46.20237       43.49573      105.37260
H         47.84780       43.31757      104.66668
N         47.48676       44.09870      101.22874
C         47.21847       45.26105      100.36766
C         45.96727       46.02251      100.80852
O         45.20806       45.52862      101.63022
C         47.10556       44.87443       98.85357
C         48.28284       44.04975       98.33374
O         46.95907       46.01191       98.04109
H         48.34225       44.12188      101.79132
H         48.08085       45.95134      100.49372
H         46.19644       44.25424       98.70896
H         47.79751       46.54046       98.11150
H         48.13325       43.82044       97.25700
H         49.23251       44.60016       98.45194
H         48.34647       43.09487       98.87167
N         45.69630       47.25195      100.27912
C         44.46513       47.99733      100.52263
C         44.70417       49.30211      101.26839
O         43.73688       50.01301      101.50641
C         43.71601       48.19747       99.18327
C         44.46772       49.05118       98.13953
C         43.72484       49.15753       96.79499
C         43.62604       47.80667       96.05902
N         43.01555       47.96677       94.74004
H         46.39172       47.67898       99.65504
H         43.78114       47.40495      101.16895
H         42.72823       48.66938       99.38077
H         43.53059       47.18273       98.77742
H         45.47071       48.63225       97.92637
H         44.59980       50.07537       98.55120
H         44.30091       49.85752       96.15092
H         42.71063       49.58548       96.95086
H         43.01605       47.08746       96.64423
H         44.64675       47.38057       95.93403
H         42.96825       47.03286       94.27124
H         42.04632       48.34752       94.83509
H         43.59391       48.60894       94.15106
N         45.93589       49.65123      101.74399
C         46.13818       50.83060      102.57861
C         45.93295       52.09274      101.76378
O         46.65878       52.31221      100.80505
C         47.53896       50.83005      103.23409
C         47.75840       49.59547      104.12694
C         49.08518       49.65853      104.82159
O         50.12052       49.69039      104.17523
O         49.13773       49.64824      106.16697
H         46.73526       49.02820      101.57278
H         45.40521       50.79827      103.41592
H         47.62825       51.74094      103.86726
H         48.33383       50.86549      102.46304
H         47.72902       48.66187      103.52709
H         46.95265       49.54353      104.89079
N         44.95030       52.97558      102.08693
C         44.73669       54.18924      101.32828
H         43.88282       54.75762      101.75297
H         45.64578       54.82697      101.36984
H         44.50914       53.94064      100.26950
H         44.33411       52.78458      102.89103
Ca        51.36002       47.62573      107.41406
O         53.36986       49.30794      105.12626
H         52.96611       49.96148      104.50166
H         54.31992       49.25863      104.85202
O         48.58441       46.67516      108.69745
H         48.31174       47.47493      108.18104
H         49.02459       46.08813      108.03257
O         53.65080       50.02375      108.43088
H         53.58056       50.95805      108.75149
H         54.59683       49.92662      108.15509
O         51.33096       51.48643      106.81255
H         52.08312       51.69450      106.20377
H         50.59932       52.08374      106.51529
O         50.17738       49.51244      109.61639
H         50.78219       50.16213      110.05488
H         50.44203       48.63528      109.99220

Ca 1.0



