%chk=apoCaM-CA-Ng.loop1.water2.frame1284.chk
%nprocshared=20
%mem=10GB
%nosave
#b3lyp/svp scf=(tight,noincore,xqc) Test 
#IOP(5/87=12) Density=Current Pop=(MK,readradii) iop(6/33=2) iop(6/42=6)

apoCaM-CA-Ng.loop1.water2.frame1284 

   0  1 
C         60.61321       32.28587        7.99243
C         61.83150       33.14651        8.15824
O         61.94117       33.81239        9.17353
H         59.70588       32.92727        7.99152
H         60.64039       31.72038        7.03724
H         60.54810       31.56461        8.83258
N         62.77442       33.20622        7.17773
C         63.95161       34.07281        7.21749
C         63.84328       35.18410        6.17701
O         64.82673       35.85958        5.91272
C         65.23445       33.22787        7.04259
C         65.39595       32.53362        5.71075
O         66.48647       31.77327        5.49952
O         64.57390       32.65750        4.81654
H         62.61715       32.64640        6.32659
H         64.04540       34.57405        8.20217
H         65.25564       32.46061        7.84632
H         66.11721       33.88874        7.18431
N         62.64447       35.45336        5.58498
C         62.42786       36.46921        4.56253
C         62.86842       37.85120        5.02892
O         63.64718       38.45352        4.30134
C         60.95744       36.45037        4.07314
C         60.61628       35.08420        3.43575
C         59.16009       34.98641        2.97904
C         58.88140       33.57911        2.42447
N         57.48576       33.43468        2.01796
H         61.82389       34.92010        5.89349
H         63.04539       36.21044        3.67209
H         60.81599       37.24094        3.30358
H         60.26488       36.66027        4.91474
H         60.77875       34.26576        4.16477
H         61.28881       34.90684        2.56763
H         58.95660       35.75123        2.19864
H         58.49265       35.17042        3.84923
H         59.10717       32.82049        3.20834
H         59.54324       33.38270        1.55141
H         57.33655       32.46480        1.65607
H         56.85646       33.58813        2.83920
H         57.25915       34.11972        1.26158
N         62.52150       38.43852        6.21310
C         61.69244       37.86995        7.27179
C         62.54370       37.46942        8.46254
O         63.74612       37.68579        8.44854
C         60.55813       38.84162        7.65209
C         60.91411       40.31305        7.74017
O         61.85624       40.84730        8.55801
O         60.29400       41.07744        7.01816
H         62.95208       39.35207        6.41373
H         61.21920       36.92588        6.95351
H         60.06558       38.51511        8.59056
H         59.78836       38.75750        6.85100
N         61.98347       36.77173        9.49952
C         62.77367       36.24511       10.60405
C         63.32146       37.32600       11.47413
O         62.90883       38.46323       11.32223
H         60.97924       36.54268        9.46981
H         63.61020       35.64877       10.18946
H         62.15186       35.58551       11.24715
N         64.29590       37.06079       12.38822
C         64.86647       38.10386       13.23352
C         64.90921       37.63441       14.69809
O         64.70658       36.44683       14.92563
C         66.27435       38.48328       12.71554
C         66.44331       38.43328       11.20475
O         67.34895       37.74443       10.76218
O         65.63659       39.04586       10.30345
H         64.68812       36.10597       12.43116
H         64.22162       39.00612       13.15728
H         67.00934       37.75801       13.13205
H         66.57089       39.48297       13.08503
N         65.12678       38.45271       15.77045
C         65.24439       39.89864       15.70104
C         63.99993       40.53818       16.26084
O         63.19717       39.85797       16.88568
H         65.11442       38.03067       16.71302
H         65.31910       40.23536       14.66063
H         66.15327       40.25044       16.23464
N         63.71418       41.83663       15.94733
C         62.44562       42.47048       16.30001
C         61.45805       42.38344       15.13005
O         60.83581       43.36780       14.76755
C         62.67050       43.91076       16.83666
C         63.32382       44.86229       15.80267
O         63.40828       43.86691       18.03798
H         64.37075       42.33477       15.33187
H         61.95724       41.88786       17.11220
H         61.67626       44.34026       17.08505
H         64.35873       44.08856       17.85511
H         64.35090       44.53963       15.53551
H         62.73476       44.91912       14.86761
H         63.39229       45.88446       16.22856
N         61.24806       41.18090       14.52428
C         60.29095       40.90855       13.44719
C         60.51943       41.80787       12.23896
O         61.63155       41.90249       11.73905
C         60.39717       39.40398       13.05044
C         59.85675       38.50485       14.19264
C         59.68537       39.07679       11.71655
C         60.28067       37.04203       14.05278
H         61.81737       40.39248       14.85450
H         59.25622       41.08263       13.81522
H         61.47120       39.20214       12.92733
H         58.74825       38.58549       14.23787
H         60.25229       38.84011       15.17298
H         58.60043       39.30090       11.78213
H         60.12033       39.66371       10.88025
H         59.82188       38.01492       11.43381
H         61.39015       36.97175       14.07427
H         59.87728       36.46189       14.90890
H         59.90423       36.58186       13.11910
N         59.44476       42.44579       11.68793
C         59.48763       43.25611       10.47455
C         59.71159       44.73102       10.78070
O         59.71079       45.51818        9.84700
C         58.17694       43.07749        9.64922
C         56.90674       43.58895       10.35102
O         57.99672       41.72130        9.32991
H         58.52840       42.28742       12.12695
H         60.31723       42.90526        9.82296
H         58.27212       43.68324        8.71376
H         58.26486       41.60196        8.38321
H         56.03811       43.48598        9.66657
H         56.67337       43.00989       11.26630
H         57.00475       44.66124       10.62088
N         59.87008       45.18861       12.05748
C         59.96216       46.60794       12.38784
C         61.18315       47.23985       11.73401
O         62.29813       46.87351       12.07894
C         59.99207       46.79091       13.92965
C         59.98172       48.26199       14.35083
O         58.91210       46.12185       14.53508
H         59.86650       44.51195       12.82827
H         59.03787       47.09309       12.00357
H         60.92418       46.32836       14.31761
H         58.07519       46.45051       14.11446
H         60.01997       48.32828       15.45869
H         60.86177       48.79702       13.93755
H         59.05388       48.75563       13.99240
N         61.02266       48.17161       10.74254
C         62.09611       48.75011        9.92910
C         63.17091       47.72518        9.62026
O         64.34068       47.93689        9.90887
C         62.64252       50.05888       10.52965
C         61.53015       51.10478       10.70560
C         62.10702       52.47649       11.07272
C         60.98615       53.50442       11.27956
N         61.53611       54.83266       11.54777
H         60.05976       48.39629       10.44960
H         61.65055       49.02643        8.94635
H         63.39475       50.46216        9.81458
H         63.14342       49.87185       11.50421
H         60.82552       50.76003       11.49376
H         60.97045       51.21513        9.75001
H         62.76646       52.81833       10.24391
H         62.71154       52.39949       12.00218
H         60.35072       53.18588       12.13587
H         60.34777       53.55557       10.36919
H         60.74974       55.50130       11.71473
H         62.14811       54.80813       12.39528
H         62.08832       55.16262       10.72266
N         62.78909       46.54056        9.07928
C         63.67568       45.41390        8.84828
C         62.84590       44.17826        8.52415
O         62.93168       43.24358        9.30615
C         64.77625       45.71957        7.80251
C         65.65881       44.49773        7.48719
C         66.32912       43.93805        8.71261
O         66.11037       42.78875        9.06211
O         67.17263       44.70192        9.43177
H         61.78411       46.41677        8.90930
H         64.19588       45.19757        9.81011
H         65.42724       46.53569        8.17769
H         64.33517       46.08388        6.85848
H         66.44004       44.79022        6.75470
H         65.03132       43.71649        7.01071
N         61.99873       44.05264        7.45839
C         61.74879       45.04094        6.43013
H         61.34052       45.97792        6.85133
H         62.66063       45.23606        5.84061
H         60.98733       44.64741        5.72310
H         61.47294       43.17494        7.37405
Ca        63.78733       40.21193        9.61049
O         64.72450       41.16188        6.93980
H         64.34914       41.44167        6.06738
H         65.21508       40.32407        6.74714
O         64.88947       41.89265       12.04224
H         65.39833       41.86061       12.89020
H         64.46149       42.78534       12.04500

Ca 1.0



