%chk=apoCaM-CA-Ng.loop4.water3.frame342.chk
%nprocshared=20
%mem=10GB
%nosave
#b3lyp/svp scf=(tight,noincore,xqc) Test 
#IOP(5/87=12) Density=Current Pop=(MK,readradii) iop(6/33=2) iop(6/42=6)

apoCaM-CA-Ng.loop4.water3.frame342 

   -3  1 
C         72.06690       79.70121       42.55184
C         72.04042       78.73083       41.40913
O         72.99400       78.71000       40.64873
H         72.13945       80.73713       42.16050
H         71.15579       79.61602       43.17928
H         72.95429       79.49234       43.18756
N         70.99394       77.86873       41.24588
C         70.92006       76.84962       40.20275
C         72.09381       75.89196       40.34205
O         72.93691       75.82041       39.46812
C         70.62408       77.45436       38.79988
C         71.63990       78.37039       38.18256
O         72.70885       77.93589       37.79650
O         71.33447       79.66389       37.96382
H         70.22273       77.89759       41.92973
H         70.01184       76.23383       40.39224
H         69.67772       78.02958       38.90025
H         70.43204       76.62974       38.07927
N         72.17288       75.13537       41.47912
C         73.20853       74.17903       41.88683
C         73.29622       72.96205       40.96877
O         72.90900       71.88872       41.41218
C         74.58114       74.84649       42.19810
C         75.52359       73.79043       42.84920
C         74.36924       76.04491       43.14725
C         76.88397       74.32693       43.29484
H         71.40437       75.25530       42.15818
H         72.85546       73.78352       42.86963
H         75.04012       75.22932       41.26061
H         75.70767       72.97229       42.12031
H         75.03178       73.34817       43.74439
H         73.92336       75.71234       44.10929
H         75.32215       76.57153       43.35193
H         73.69846       76.79658       42.68711
H         77.49322       73.48964       43.69764
H         77.41709       74.78612       42.44112
H         76.77518       75.06918       44.11212
N         73.78437       73.02617       39.69540
C         73.80693       71.86546       38.81670
C         74.82710       70.82904       39.30369
O         74.38534       69.74074       39.64406
C         73.94965       72.29789       37.33933
C         73.87669       71.12472       36.40254
O         74.79834       70.89060       35.63777
O         72.78417       70.33626       36.38971
H         74.12565       73.91671       39.32187
H         72.79319       71.40134       38.85838
H         74.86983       72.87703       37.15945
H         73.10750       72.98135       37.09257
N         76.17816       71.03602       39.41135
C         76.86849       72.25874       39.02147
C         78.37586       72.22698       39.26921
O         78.85705       71.24586       39.81735
H         76.73187       70.25143       39.78661
H         76.43708       73.10348       39.58767
H         76.72762       72.36505       37.94609
N         79.23295       73.24177       38.91617
C         78.92212       74.50008       38.23877
C         77.94817       75.32623       39.05807
O         76.77047       75.33281       38.72641
C         78.46660       74.26949       36.76858
C         78.46968       75.51330       35.91589
O         78.12932       75.43727       34.74603
O         78.87044       76.70045       36.40657
H         80.22929       73.10729       39.15159
H         79.87321       75.06862       38.14702
H         77.44848       73.85287       36.71547
H         79.16556       73.55230       36.28838
N         78.31737       76.10255       40.11787
C         79.66689       76.41115       40.56766
C         80.35379       75.34872       41.39211
O         79.84861       74.24708       41.54624
H         77.56847       76.62655       40.58254
H         79.57747       77.27735       41.25842
H         80.29695       76.74640       39.71823
N         81.51737       75.68576       42.02602
C         82.26831       74.80370       42.91564
C         82.19841       75.26419       44.36726
O         82.66520       74.51568       45.21590
C         83.75511       74.77970       42.48209
C         84.00673       74.15101       41.10322
C         83.96156       72.63848       41.11463
N         84.81523       71.93022       40.33799
O         83.17050       72.04363       41.83050
H         81.87250       76.64691       41.89915
H         81.82463       73.78713       42.90561
H         84.39120       74.25057       43.22562
H         84.09844       75.83903       42.45344
H         85.03827       74.43947       40.80369
H         83.32334       74.56576       40.33268
H         85.48610       72.40714       39.71760
H         84.80235       70.89969       40.34998
N         81.65191       76.45955       44.74309
C         81.53738       76.87966       46.13929
C         82.44425       78.06094       46.46622
O         82.39824       78.51192       47.60234
C         80.05450       77.19140       46.49821
C         79.16036       75.96469       46.26705
C         79.49135       78.40262       45.73702
H         81.30884       77.10910       44.02365
H         81.86415       76.06228       46.81977
H         80.00950       77.43392       47.58382
H         78.11950       76.18308       46.58884
H         79.14381       75.68185       45.19281
H         79.53171       75.10216       46.85991
H         79.46065       78.22066       44.64401
H         78.45678       78.61119       46.08292
H         80.10059       79.31005       45.93286
N         83.31554       78.59207       45.55421
C         84.20775       79.70859       45.87062
C         83.99761       80.91136       44.95731
O         84.47121       81.98431       45.30821
C         85.67550       79.25175       45.74048
C         85.99030       78.04799       46.59331
N         85.89601       78.10422       47.94153
O         86.34439       77.00886       46.05593
H         83.38911       78.16281       44.62284
H         84.03136       80.05570       46.91183
H         86.36153       80.08025       46.02225
H         85.87022       78.99410       44.67470
H         85.60924       78.97212       48.41579
H         86.11777       77.27588       48.51392
N         83.42133       80.79262       43.72550
C         83.37322       81.87217       42.74752
C         81.99222       81.98217       42.13083
O         81.47754       80.96795       41.68311
C         84.35813       81.54932       41.60463
C         85.79617       81.47222       42.05453
C         86.50859       80.26805       41.93400
C         86.44846       82.60684       42.56799
C         87.85031       80.19943       42.31716
C         87.79233       82.53647       42.94838
C         88.49834       81.33544       42.82225
O         89.79652       81.28581       43.18260
H         83.10034       79.87167       43.40060
H         83.67634       82.84800       43.18660
H         84.29910       82.33857       40.82491
H         84.05484       80.58719       41.13438
H         86.02793       79.38173       41.53930
H         85.92289       83.54891       42.66173
H         88.38593       79.26436       42.21441
H         88.28773       83.41882       43.33412
H         90.32274       80.47781       43.09789
N         81.41881       83.20796       41.93212
C         80.23020       83.46825       41.11323
C         78.90765       83.22262       41.82283
O         78.09206       84.13591       41.82440
C         80.26758       82.77434       39.72796
C         81.54370       83.11817       38.94281
C         81.51194       82.52046       37.56623
O         81.57593       83.24167       36.58336
O         81.42666       81.18566       37.40779
H         81.94556       84.03677       42.24847
H         80.23715       84.55914       40.88110
H         79.38989       83.12948       39.14319
H         80.16683       81.67347       39.82212
H         82.43440       82.72462       39.47033
H         81.64284       84.22301       38.86366
N         78.58920       82.03540       42.41652
C         77.26156       81.77625       42.97730
C         76.87695       82.72033       44.11172
O         75.72095       82.68187       44.51207
C         77.12779       80.32875       43.50897
C         77.48238       79.20166       42.52973
C         76.66989       79.21585       41.27314
O         76.79873       80.11476       40.45794
O         75.86111       78.18104       40.99734
H         79.28515       81.28592       42.42687
H         76.52623       81.92841       42.15753
H         76.07959       80.16626       43.84586
H         77.79056       80.21890       44.39220
H         77.31108       78.23759       43.05704
H         78.55554       79.22922       42.25488
N         77.76938       83.57466       44.69197
C         77.41324       84.48498       45.76152
H         76.34136       84.41513       46.04317
H         78.02596       84.25560       46.65751
H         77.61905       85.52637       45.43777
H         78.75163       83.58856       44.38641
Ca        75.16006       77.92627       38.88574
O         75.29938       77.49906       35.90292
H         75.46151       78.42033       35.57840
H         75.76193       76.91890       35.24814
O         74.73361       80.68128       37.49561
H         73.93295       80.90087       38.03506
H         75.46062       81.21692       37.90161
O         78.13901       79.05684       38.02732
H         77.61686       78.21695       38.00275
H         77.93082       79.50032       37.16723

Ca 1.0



