%chk=apoCaM-CA-Ng.loop1.water2.frame915.chk
%nprocshared=20
%mem=10GB
%nosave
#b3lyp/svp scf=(tight,noincore,xqc) Test 
#IOP(5/87=12) Density=Current Pop=(MK,readradii) iop(6/33=2) iop(6/42=6)

apoCaM-CA-Ng.loop1.water2.frame915 

   0  1 
C          6.35030       30.38533       42.67053
C          7.83043       30.17422       42.58387
O          8.41431       30.46049       41.54774
H          5.84761       29.41587       42.86987
H          6.12334       31.09410       43.49365
H          5.95819       30.80277       41.71836
N          8.51180       29.67370       43.65238
C          9.94957       29.44009       43.63010
C         10.35617       28.49806       42.44998
O          9.40231       27.54423       42.05434
C         10.52291       29.23498       45.08271
C          9.98296       28.28031       46.14939
O          9.08719       27.30087       45.93194
O         10.37871       28.43741       47.29392
H          7.98539       29.46421       44.51459
H         10.44501       30.39244       43.33545
H         10.34720       30.22824       45.55507
H         11.62463       29.11300       45.03051
N         11.71569       27.95125       42.50728
C         12.14228       27.38822       41.20844
C         12.92378       26.12776       41.49806
O         13.88356       26.17116       42.25527
C         12.92950       28.40913       40.34856
C         13.09414       27.91398       38.89516
C         13.84444       28.93582       38.02313
C         13.96349       28.50857       36.54538
N         12.67127       28.50774       35.85261
H         12.39875       28.67734       42.82764
H         11.25033       27.10661       40.60569
H         13.91570       28.62882       40.81319
H         12.34542       29.35498       40.30548
H         12.07801       27.75026       38.47988
H         13.64525       26.94879       38.87745
H         14.87069       29.04706       38.43533
H         13.34350       29.92752       38.06728
H         14.43570       27.50398       36.47243
H         14.63046       29.23506       36.02989
H         12.82516       28.26772       34.84626
H         12.02279       27.79791       36.25860
H         12.23651       29.45810       35.90227
N         12.53252       24.95164       40.93980
C         13.10094       23.65264       41.27154
C         13.93950       23.17510       40.10740
O         13.44821       23.22564       38.98968
C         11.95013       22.66256       41.53687
C         11.07768       23.11610       42.67452
O          9.89746       23.36379       42.48349
O         11.59172       23.24317       43.91157
H         11.77261       24.96907       40.24106
H         13.72195       23.71143       42.18835
H         12.36156       21.66012       41.78166
H         11.32951       22.56590       40.61693
N         15.21399       22.70672       40.24025
C         15.91147       22.51378       41.50004
C         17.31039       21.97130       41.26519
O         18.07305       22.61294       40.55615
H         15.70886       22.45799       39.38006
H         15.33217       21.81271       42.14094
H         16.00404       23.48915       42.02066
N         17.73803       20.82129       41.86722
C         19.10541       20.32368       41.71843
C         19.31053       19.74176       40.32868
O         18.63013       18.78509       39.98111
C         19.41611       19.26559       42.80393
C         20.86670       18.84609       42.85889
O         21.69595       19.31265       42.09281
O         21.26012       17.95995       43.79299
H         17.09481       20.33095       42.50842
H         19.79900       21.17383       41.90594
H         18.77980       18.36619       42.65504
H         19.17190       19.70198       43.79659
N         20.24218       20.26539       39.47897
C         20.49099       19.72984       38.14641
C         19.32929       19.90103       37.18166
O         19.43993       19.42138       36.06256
H         20.82477       21.05376       39.79814
H         20.74244       18.65034       38.23726
H         21.36914       20.24688       37.70206
N         18.19483       20.57284       37.52978
C         17.04114       20.74685       36.66049
C         15.85344       20.06780       37.31036
O         15.57221       20.33138       38.46810
C         16.75757       22.25005       36.44855
C         17.91285       22.95312       35.73567
O         15.58940       22.39811       35.67988
H         18.12077       20.99466       38.46329
H         17.21101       20.29453       35.65813
H         16.63136       22.73277       37.44093
H         15.08393       23.16655       36.05454
H         17.67121       24.03025       35.61241
H         18.84792       22.87190       36.32890
H         18.07678       22.50604       34.73235
N         15.11509       19.16007       36.62105
C         13.96413       18.46901       37.19609
C         14.31956       17.00234       37.30877
O         14.23979       16.43888       38.39142
C         12.68269       18.67506       36.33414
C         12.48512       20.13145       35.83744
C         11.44318       18.18489       37.10967
C         12.37805       21.19064       36.93020
H         15.38586       18.95263       35.64925
H         13.74585       18.86113       38.21522
H         12.77484       18.06678       35.40762
H         11.56787       20.17771       35.21062
H         13.33961       20.40304       35.18070
H         11.54618       17.11460       37.38440
H         11.30873       18.76341       38.04943
H         10.52670       18.29854       36.49384
H         11.49959       21.01798       37.58266
H         13.29732       21.19814       37.54196
H         12.26906       22.18996       36.45678
N         14.81310       16.35319       36.21828
C         15.30230       14.98548       36.22056
C         14.70491       14.22008       35.05182
O         13.97218       14.79140       34.25395
C         16.86096       14.98372       36.20219
C         17.48194       15.87570       35.11460
O         17.36590       15.35772       37.46095
H         14.91781       16.87737       35.33797
H         14.98302       14.45365       37.14425
H         17.20888       13.94477       36.02608
H         17.04765       16.27483       37.66397
H         17.24271       16.94572       35.30036
H         18.58790       15.77721       35.13805
H         17.11502       15.59030       34.10782
N         14.95327       12.88799       34.92554
C         14.36571       12.04779       33.88884
C         13.41313       11.01954       34.49236
O         12.84601       10.24438       33.73613
C         15.48143       11.37351       33.04768
C         16.34533       10.39049       33.84835
O         16.31748       12.35521       32.49082
H         15.55333       12.43663       35.63135
H         13.75900       12.66319       33.18799
H         15.01046       10.78004       32.22841
H         15.84127       12.72930       31.70407
H         16.88653       10.90007       34.67114
H         15.72079        9.57665       34.27134
H         17.10070        9.92847       33.17833
N         13.16573       10.97018       35.83792
C         12.27333        9.99881       36.46109
C         12.08642       10.31173       37.93819
O         13.06089       10.59155       38.62456
C         12.76843        8.53964       36.29351
C         14.12622        8.23046       36.95049
C         14.44723        6.73571       36.82901
C         15.76370        6.38373       37.53301
N         16.01626        4.94422       37.46974
H         13.60701       11.66505       36.45416
H         11.27802       10.06158       35.96758
H         12.82543        8.27677       35.21709
H         11.99847        7.87816       36.74946
H         14.08819        8.47075       38.03183
H         14.92618        8.83833       36.47609
H         14.50874        6.44862       35.75667
H         13.62673        6.15622       37.30758
H         15.70866        6.69296       38.60101
H         16.60353        6.93152       37.05110
H         16.91564        4.73097       37.95818
H         15.24386        4.42409       37.94718
H         16.08632        4.63300       36.47387
N         10.85850       10.19544       38.51546
C         10.66619       10.36450       39.94918
C         10.91378       11.80650       40.38347
O         11.80123       11.99689       41.20286
C          9.29408        9.81529       40.40194
C          9.16614        9.79599       41.93294
C          7.87969        9.15048       42.35850
O          7.64982        7.98679       42.06821
O          6.98037        9.84668       43.07879
H         10.06385        9.89039       37.93262
H         11.41088        9.70705       40.45638
H          9.21909        8.76713       40.03488
H          8.44772       10.38394       39.97090
H          9.20545       10.83552       42.32350
H         10.00849        9.22038       42.37530
N         10.21391       12.88959       39.92878
C          9.16163       12.87900       38.93262
H          8.22209       13.25705       39.38767
H          9.44730       13.55090       38.09676
H          8.96938       11.88627       38.49850
H         10.45495       13.81470       40.31768
Ca         8.89569       26.49723       43.91707
O         12.00365       25.97641       45.09809
H         12.76919       25.47077       44.72784
H         12.41834       26.76705       45.52448
O          9.73792       24.51589       46.97542
H          9.28547       23.64359       47.09604
H          9.45339       25.05343       47.75699

Ca 1.0



