%chk=apoCaM-CA-Ng.loop2.water4.frame1338.chk
%nprocshared=20
%mem=10GB
%nosave
#b3lyp/svp scf=(tight,noincore,xqc) Test 
#IOP(5/87=12) Density=Current Pop=(MK,readradii) iop(6/33=2) iop(6/42=6)

apoCaM-CA-Ng.loop2.water4.frame1338 

   -2  1 
C         50.81992       58.57243       33.47778
C         50.15029       59.43340       32.43924
O         50.56253       60.57317       32.28200
H         51.63888       59.12948       33.98138
H         50.08212       58.26933       34.25040
H         51.25852       57.67068       33.00105
N         49.10632       58.99621       31.67502
C         48.52337       57.65832       31.75622
C         47.07136       57.67338       32.21462
O         46.52094       56.59203       32.37343
C         48.67548       56.92430       30.40395
C         47.91356       57.52800       29.24903
O         47.98090       57.00213       28.15031
O         47.14776       58.62362       29.40463
H         48.71220       59.66056       30.99218
H         49.06710       57.04845       32.50485
H         48.32644       55.87550       30.52581
H         49.75460       56.89365       30.13935
N         46.38496       58.83148       32.46011
C         45.00537       58.84356       32.93022
C         44.10802       59.53705       31.91844
O         43.41222       60.47809       32.27507
C         44.96096       59.51811       34.30925
H         46.84392       59.74383       32.32553
H         44.61651       57.80989       33.05089
H         45.32235       60.56782       34.23951
H         43.92577       59.51951       34.71148
H         45.61359       58.96925       35.02111
N         44.07041       59.10471       30.62211
C         43.20850       59.70582       29.59764
C         43.29385       59.01655       28.23888
O         44.13209       58.15381       28.01913
C         43.46126       61.23021       29.43719
C         44.90594       61.67143       29.55970
O         45.19422       62.44395       30.46016
O         45.89863       61.26985       28.73772
H         44.67393       58.30911       30.36808
H         42.15146       59.56035       29.91633
H         42.90679       61.74189       30.25316
H         43.00844       61.61454       28.49924
N         42.36749       59.33878       27.28606
C         42.30479       58.73917       25.96378
C         43.24805       59.38769       24.96976
O         43.96562       60.31673       25.30562
H         41.60636       59.98673       27.54100
H         41.28185       58.89700       25.55784
H         42.46611       57.64095       26.03288
N         43.25492       58.93987       23.68414
C         44.11436       59.46666       22.62268
C         43.80310       60.91298       22.30699
O         42.64749       61.21140       22.03351
C         43.88044       58.69179       21.30682
C         44.19139       57.22007       21.36480
N         43.98957       56.46129       20.26439
O         44.61816       56.70437       22.38723
H         42.61474       58.16371       23.45463
H         45.18198       59.35199       22.90999
H         44.51743       59.13759       20.51020
H         42.81488       58.80601       21.00534
H         43.62652       56.88527       19.39722
H         44.18991       55.45131       20.27858
N         44.79323       61.85273       22.24634
C         44.54121       63.21041       21.78352
C         44.69209       64.21623       22.89580
O         45.09133       63.83967       23.98953
H         45.76098       61.59376       22.49334
H         43.50546       63.28496       21.40448
H         45.22085       63.45533       20.93701
N         44.33976       65.52519       22.73773
C         43.77505       66.08960       21.50762
C         44.85208       66.47619       20.49121
O         44.48986       66.90781       19.40471
C         42.89980       67.32840       21.84136
C         41.72496       66.97163       22.76331
O         43.68525       68.32135       22.44958
H         44.40074       66.12829       23.57295
H         43.08604       65.35854       21.03837
H         42.47424       67.71299       20.88389
H         43.23960       69.19145       22.27734
H         42.08118       66.59204       23.74395
H         41.10623       67.87547       22.94825
H         41.08276       66.19866       22.29090
N         46.18265       66.42398       20.79356
C         47.24619       66.95249       19.93705
C         48.30095       65.86729       19.71428
O         48.79109       65.35739       20.71400
C         47.86955       68.18804       20.65869
C         46.78855       69.28455       20.87148
C         49.05976       68.74890       19.86177
C         47.24912       70.45782       21.73656
H         46.47007       66.08307       21.72274
H         46.85067       67.32923       18.97558
H         48.24077       67.85931       21.65566
H         45.92242       68.84776       21.40234
H         46.43161       69.66371       19.88852
H         49.53699       69.59182       20.39791
H         49.84607       67.97724       19.73566
H         48.73023       69.09419       18.85881
H         47.56662       70.09062       22.73575
H         48.07860       71.01926       21.26488
H         46.40151       71.16246       21.87530
N         48.78391       65.47198       18.49173
C         48.35943       65.96906       17.17535
C         49.33996       65.55245       16.05661
O         50.29751       64.83846       16.31132
C         46.92965       65.45727       16.84840
C         46.82697       63.95479       16.87584
O         47.48142       63.27125       16.10491
O         45.99428       63.35671       17.74971
H         49.54601       64.77905       18.52327
H         48.37727       67.07996       17.18822
H         46.60163       65.82418       15.85377
H         46.20053       65.85001       17.57781
N         49.12726       65.96904       14.76958
C         49.94029       65.55616       13.62338
C         50.47008       66.76839       12.86789
O         49.66854       67.62773       12.53443
C         49.07199       64.68986       12.68166
C         49.82245       64.26641       11.43264
C         50.41193       62.99399       11.34559
C         49.94621       65.15039       10.34244
C         51.12266       62.62242       10.19798
C         50.65090       64.77309        9.19727
C         51.24220       63.51116        9.12586
H         48.31628       66.57362       14.57710
H         50.76913       64.89849       13.93863
H         48.13385       65.20722       12.38421
H         48.77345       63.78841       13.26098
H         50.33647       62.29663       12.16986
H         49.49448       66.13295       10.37390
H         51.58436       61.64562       10.13983
H         50.73976       65.46160        8.36627
H         51.79183       63.22275        8.23904
N         51.77585       66.86495       12.44518
C         52.84625       65.90392       12.68192
C         53.17458       65.73179       14.14547
O         53.33155       64.60682       14.59555
C         54.05188       66.50794       11.94792
C         53.37938       67.21339       10.79445
C         52.21190       67.88635       11.51083
H         52.58248       64.93272       12.20475
H         54.52619       67.30443       12.56644
H         54.83335       65.76759       11.67000
H         54.03050       67.90200       10.21582
H         52.97779       66.43534       10.10372
H         52.55152       68.77733       12.08320
H         51.43903       68.16577       10.76265
N         53.25783       66.82347       14.95620
C         53.58734       66.72379       16.36881
C         55.07185       66.40018       16.49536
O         55.86108       67.23251       16.06943
C         53.28226       68.05666       17.08816
C         51.77570       68.36975       17.09679
C         51.51486       69.69953       17.74235
O         51.90074       69.92442       19.01293
O         50.94850       70.58323       17.11908
H         53.05460       67.75066       14.55356
H         52.92567       65.97500       16.83498
H         53.83524       68.88417       16.58980
H         53.62728       67.98878       18.14392
H         51.23702       67.57870       17.66236
H         51.37394       68.38595       16.06059
N         55.58202       65.25276       17.03545
C         54.83638       64.11798       17.54344
H         53.74341       64.20847       17.46242
H         55.13203       63.21302       16.97182
H         55.09242       63.96093       18.61128
H         56.60952       65.16313       17.07433
Ca        46.03246       59.86079       26.98247
O         47.89868       62.35671       26.69367
H         48.20388       62.71956       25.82487
H         47.21327       63.00013       27.00404
O         47.57726       59.95524       24.20224
H         47.71977       60.92683       24.07813
H         47.66360       59.57427       23.29259
O         49.41722       59.45906       26.77168
H         49.82428       60.20385       26.26195
H         49.90550       58.65361       26.46628
O         46.39283       57.03557       25.46854
H         45.59984       56.64925       25.91822
H         46.04905       57.36899       24.60249

Ca 1.0



