%chk=apoCaM-CA-Ng.loop4.water4.frame286.chk
%nprocshared=20
%mem=10GB
%nosave
#b3lyp/svp scf=(tight,noincore,xqc) Test 
#IOP(5/87=12) Density=Current Pop=(MK,readradii) iop(6/33=2) iop(6/42=6)

apoCaM-CA-Ng.loop4.water4.frame286 

   -3  1 
C         44.43363       42.85257       22.62326
C         44.03154       42.39641       21.25326
O         44.89751       41.94578       20.52657
H         45.18704       43.66376       22.53670
H         43.56417       43.22803       23.19990
H         44.88637       42.00015       23.17379
N         42.73249       42.45974       20.83832
C         42.25634       42.00450       19.53350
C         42.52097       40.52085       19.36708
O         43.30613       40.14524       18.51957
C         42.70857       42.93836       18.36775
C         44.18214       43.04067       18.05707
O         44.82923       42.03245       17.44047
O         44.77141       44.09109       18.25479
H         42.02669       42.82244       21.49623
H         41.14777       42.11067       19.52056
H         42.34088       43.95470       18.63015
H         42.18750       42.63772       17.43227
N         41.87788       39.63226       20.18733
C         42.00038       38.16824       20.19908
C         41.40092       37.54649       18.93694
O         40.34866       36.93131       19.04865
C         43.43874       37.71299       20.57214
C         43.59169       36.17146       20.70386
C         43.86038       38.40971       21.88220
C         42.77733       35.51912       21.82783
H         41.23737       40.03118       20.89131
H         41.34681       37.82524       21.03289
H         44.14122       38.03130       19.77195
H         44.66403       35.94105       20.89212
H         43.31432       35.68869       19.74466
H         44.84974       38.06655       22.21112
H         43.91194       39.50914       21.74856
H         43.14158       38.19996       22.70130
H         42.97760       34.42684       21.83796
H         43.07162       35.91804       22.82055
H         41.68955       35.66670       21.67587
N         41.95323       37.71156       17.70187
C         41.26099       37.34326       16.47746
C         41.17031       35.83156       16.28193
O         40.04634       35.37148       16.13697
C         41.82367       38.13311       15.27863
C         41.00888       37.91139       14.03183
O         41.53495       37.48010       13.01931
O         39.69416       38.20935       14.02222
H         42.84820       38.19428       17.60354
H         40.22006       37.73782       16.56034
H         42.88828       37.90850       15.11077
H         41.76699       39.21839       15.51876
N         42.21833       34.94933       16.30104
C         43.62394       35.22979       16.55570
C         44.38132       35.68750       15.32748
O         43.76925       35.88296       14.28806
H         41.97598       33.94866       16.21986
H         44.09024       34.26261       16.83810
H         43.74285       35.90437       17.42202
N         45.74302       35.81433       15.31629
C         46.62547       35.48367       16.44255
C         46.47451       36.51090       17.57249
O         45.77174       37.48889       17.35966
C         48.07919       35.37517       15.92214
C         48.18234       34.33799       14.83504
O         48.56639       34.65138       13.71997
O         47.84800       33.05728       15.08854
H         46.17569       36.09015       14.41989
H         46.34515       34.47795       16.80748
H         48.77711       35.04944       16.70262
H         48.41847       36.36299       15.54322
N         47.05039       36.41096       18.81191
C         47.90791       35.35520       19.32369
C         47.20130       34.03391       19.44464
O         46.01788       33.93806       19.15077
H         46.84915       37.16706       19.47585
H         48.23622       35.63016       20.35101
H         48.83560       35.27328       18.73756
N         47.88310       32.96554       19.93738
C         47.26896       31.66380       20.15942
C         47.15866       31.34846       21.64420
O         46.59291       30.31253       21.96557
C         48.01263       30.56646       19.36437
C         49.48139       30.36834       19.77298
C         50.11580       29.26507       18.96161
N         51.17581       29.51558       18.15657
O         49.66778       28.13018       19.03293
H         48.87064       33.10082       20.20353
H         46.22342       31.66841       19.78193
H         47.97535       30.82822       18.28368
H         47.46820       29.60583       19.50051
H         49.53518       30.10353       20.84836
H         50.04852       31.30826       19.61580
H         51.57115       30.46379       18.07735
H         51.60253       28.75735       17.60330
N         47.63694       32.19782       22.60629
C         47.47311       31.95976       24.03751
C         48.80023       31.68565       24.72624
O         48.77227       31.34042       25.89986
C         46.74180       33.15831       24.71712
C         45.36250       33.39905       24.08702
C         47.56257       34.46482       24.67961
H         48.12754       33.05652       22.32777
H         46.85769       31.04712       24.19589
H         46.58223       32.89897       25.78756
H         45.45836       33.68790       23.01800
H         44.74202       32.48143       24.15814
H         44.83493       34.21775       24.62243
H         47.02620       35.26425       25.23346
H         48.55021       34.32759       25.16820
H         47.72584       34.82191       23.64179
N         49.99688       31.84217       24.08733
C         51.27729       31.60360       24.73341
C         52.00160       32.91463       24.94430
O         52.37190       33.18866       26.07783
C         52.14462       30.63530       23.90431
C         51.49689       29.28172       23.74375
N         51.28213       28.75958       22.51401
O         51.18105       28.64078       24.73527
H         50.02160       32.17484       23.11418
H         51.13993       31.13955       25.73687
H         53.11314       30.48775       24.43059
H         52.36278       31.07706       22.90759
H         51.56561       29.27154       21.66669
H         50.84525       27.83194       22.40709
N         52.25508       33.77032       23.90917
C         53.07268       34.97297       24.06880
C         52.30316       36.23597       23.74610
O         51.23171       36.13686       23.17618
C         54.27052       34.88048       23.10067
C         54.97200       33.55090       23.20783
C         55.60726       33.16856       24.39777
C         54.96786       32.66803       22.11295
C         56.22718       31.91939       24.49214
C         55.58564       31.42058       22.21004
C         56.21646       31.04057       23.39792
O         56.80525       29.83102       23.47689
H         51.90599       33.53906       22.96627
H         53.43486       35.05098       25.11612
H         54.98797       35.71087       23.27254
H         53.87636       34.99077       22.06404
H         55.61623       33.83465       25.25110
H         54.47624       32.93806       21.18577
H         56.71128       31.63467       25.41691
H         55.56886       30.74802       21.36143
H         57.25025       29.52826       24.28081
N         52.86727       37.45476       24.02313
C         52.39590       38.78707       23.62598
C         51.10348       39.28076       24.27132
O         51.14336       40.29260       24.95836
C         52.29837       38.91905       22.09097
C         53.64647       38.66060       21.40714
C         53.53286       38.84953       19.92269
O         52.69618       38.07635       19.20414
O         54.20204       39.70070       19.35898
H         53.78030       37.44086       24.50326
H         53.17911       39.51036       23.95300
H         51.97913       39.95739       21.84556
H         51.53226       38.22260       21.68790
H         53.98865       37.62410       21.60827
H         54.40218       39.36826       21.81485
N         49.90683       38.70421       23.98975
C         48.61446       39.29138       24.32276
C         48.34249       39.36856       25.81974
O         47.34335       39.97219       26.18779
C         47.48364       38.47995       23.64077
C         47.63837       38.29997       22.10928
C         47.42475       39.53478       21.28098
O         47.47751       39.40859       19.94094
O         47.11835       40.60273       21.78453
H         49.90890       37.87297       23.41131
H         48.60466       40.32664       23.91633
H         46.49309       38.94016       23.85603
H         47.48645       37.46497       24.09347
H         46.88355       37.55928       21.78580
H         48.60415       37.84880       21.82060
N         49.15436       38.78292       26.74524
C         48.88213       38.87566       28.16388
H         48.90190       39.93934       28.48434
H         47.88562       38.43981       28.39106
H         49.65302       38.31779       28.73643
H         49.98139       38.24437       26.45276
Ca        46.21473       40.64459       18.55212
O         47.82622       42.25525       16.45971
H         47.60931       42.90617       15.74631
H         48.79967       42.36020       16.60666
O         48.58858       42.94059       19.51802
H         49.23719       42.24716       19.23719
H         47.77107       42.43477       19.75149
O         45.28371       39.69333       15.46970
H         45.97003       39.23255       14.92461
H         44.79022       40.25889       14.82442
O         48.32398       39.22412       16.73407
H         49.03803       39.03180       17.39223
H         48.67303       38.87476       15.87628

Ca 1.0



