%chk=apoCaM-CA-Ng.loop2.water3.frame743.chk
%nprocshared=20
%mem=10GB
%nosave
#b3lyp/svp scf=(tight,noincore,xqc) Test 
#IOP(5/87=12) Density=Current Pop=(MK,readradii) iop(6/33=2) iop(6/42=6)

apoCaM-CA-Ng.loop2.water3.frame743 

   -2  1 
C         81.53323       28.75577      -13.49506
C         82.61234       29.21238      -14.42051
O         82.30404       29.61783      -15.52978
H         80.57145       28.62509      -14.03449
H         81.82853       27.80472      -13.00940
H         81.40131       29.53770      -12.71615
N         83.91306       29.15561      -14.01163
C         85.04949       29.72290      -14.72920
C         85.02795       31.23414      -14.56179
O         85.80932       31.79665      -13.80546
C         86.35999       29.09374      -14.20878
C         87.57267       29.56362      -14.97179
O         87.53458       29.69370      -16.18594
O         88.73297       29.76853      -14.32114
H         84.10257       28.67654      -13.11883
H         84.99771       29.45099      -15.80971
H         86.28195       27.99356      -14.34667
H         86.49835       29.29077      -13.12338
N         84.12872       31.94540      -15.28129
C         83.93882       33.37977      -15.24426
C         82.47929       33.68956      -14.93577
O         81.62930       32.84812      -15.19604
C         84.30258       33.89363      -16.63803
H         83.55191       31.43996      -15.95873
H         84.58630       33.86030      -14.48155
H         83.94832       34.92512      -16.80945
H         85.40497       33.85092      -16.76367
H         83.84400       33.24291      -17.41799
N         82.06376       34.89672      -14.45587
C         82.93969       36.02574      -14.15663
C         83.76220       35.81457      -12.88918
O         83.30975       35.16486      -11.95686
C         82.12264       37.34516      -14.08512
C         81.07828       37.28541      -12.98979
O         81.51007       37.03442      -11.72686
O         79.88821       37.37478      -13.25543
H         81.04544       35.02741      -14.34932
H         83.63885       36.17352      -15.00074
H         81.65245       37.51877      -15.08367
H         82.81111       38.19835      -13.90004
N         84.99245       36.38391      -12.79699
C         85.81044       36.39066      -11.60044
C         87.04825       35.55321      -11.76887
O         87.12407       34.78398      -12.71671
H         85.37040       36.88283      -13.61470
H         85.27575       36.00083      -10.70757
H         86.08448       37.44959      -11.42666
N         88.06550       35.58620      -10.86476
C         88.14653       36.49341       -9.72184
C         88.01451       35.69612       -8.45549
O         88.39296       34.53223       -8.46453
C         89.49163       37.23994       -9.74588
C         89.65882       38.00512      -11.03344
N         90.05993       37.37012      -12.16084
O         89.42913       39.20446      -11.06047
H         88.84793       34.92664      -10.99955
H         87.34346       37.25827       -9.72328
H         90.33557       36.52165       -9.63910
H         89.53677       37.94054       -8.88266
H         90.29391       36.36658      -12.14622
H         90.15862       37.88294      -13.04838
N         87.51276       36.24767       -7.31074
C         87.40156       35.45446       -6.09893
C         86.13445       35.70811       -5.31449
O         86.25483       35.87330       -4.10836
H         87.26583       37.25049       -7.28531
H         88.28339       35.66897       -5.45402
H         87.43555       34.37151       -6.33688
N         84.88991       35.73838       -5.89072
C         83.67892       35.94666       -5.07663
C         82.44189       35.18892       -5.53325
O         82.39513       34.63095       -6.61729
C         83.28094       37.44860       -4.96548
C         84.28421       38.28647       -4.20582
O         83.07308       38.01818       -6.23105
H         84.82523       35.66632       -6.91677
H         83.87464       35.53688       -4.06303
H         82.34686       37.52302       -4.36464
H         82.19323       38.48096       -6.21654
H         84.40620       37.87698       -3.18060
H         85.25602       38.31096       -4.73485
H         83.88001       39.31816       -4.13321
N         81.35350       35.21839       -4.70303
C         80.03337       34.70347       -5.01154
C         79.12163       35.84902       -5.45339
O         78.93306       36.80120       -4.70895
C         79.34969       34.09721       -3.74658
C         77.97575       33.50347       -4.17565
C         80.23194       33.09820       -2.98580
C         77.16124       32.87942       -3.05831
H         81.45391       35.68645       -3.79270
H         80.11130       33.91287       -5.79221
H         79.16887       34.92583       -3.02186
H         78.10663       32.75167       -4.98545
H         77.35207       34.32756       -4.57866
H         79.75483       32.86009       -2.00898
H         80.39321       32.16918       -3.56262
H         81.21357       33.55553       -2.73506
H         77.12224       33.55690       -2.18138
H         76.12595       32.71525       -3.42847
H         77.59596       31.89946       -2.77661
N         78.44658       35.75074       -6.62376
C         77.36733       36.62509       -7.06766
C         76.12633       35.84315       -7.55187
O         75.19904       36.48769       -8.02184
C         77.92736       37.65853       -8.06135
C         78.96968       37.11608       -8.97620
O         80.26354       37.42916       -8.74640
O         78.66375       36.37313       -9.89212
H         78.71783       35.00227       -7.25139
H         76.98309       37.23761       -6.22324
H         78.45155       38.41257       -7.43702
H         77.13419       38.19319       -8.62432
N         75.97572       34.49270       -7.34553
C         74.73496       33.74628       -7.58588
C         74.99133       32.47931       -8.41822
O         74.74664       31.39403       -7.91754
C         74.13594       33.42357       -6.19097
C         72.79963       32.69991       -6.13637
C         71.75678       32.94490       -7.05373
C         72.56955       31.79835       -5.07971
C         70.52360       32.29399       -6.91420
C         71.33215       31.16451       -4.93610
C         70.30914       31.41121       -5.85284
H         76.72055       33.97746       -6.86681
H         73.99229       34.37738       -8.11483
H         73.99034       34.38654       -5.65687
H         74.88721       32.85332       -5.59950
H         71.88048       33.63389       -7.87631
H         73.34325       31.60217       -4.34799
H         69.72723       32.48284       -7.62313
H         71.16555       30.48913       -4.10622
H         69.34876       30.92337       -5.73706
N         75.44354       32.52076       -9.71261
C         75.60860       31.34609      -10.59033
C         76.55902       30.23656      -10.11388
O         76.59416       29.16580      -10.70436
C         76.14007       31.96806      -11.88540
C         75.43063       33.30783      -11.88885
C         75.60584       33.75560      -10.44491
H         74.59503       30.91079      -10.72060
H         77.22935       32.18505      -11.77054
H         75.99122       31.34233      -12.78860
H         75.77316       34.05417      -12.63411
H         74.34847       33.10075      -12.06307
H         76.61697       34.17092      -10.23987
H         74.82278       34.50997      -10.21836
N         77.35270       30.45571       -9.04172
C         78.23304       29.52419       -8.35819
C         77.35986       28.43933       -7.75794
O         77.59457       27.26457       -8.00386
C         79.04818       30.27963       -7.25947
C         80.10314       31.28778       -7.82144
C         79.61913       32.64254       -8.31216
O         80.52021       33.52993       -8.80539
O         78.47678       32.99773       -8.13173
H         77.25429       31.36077       -8.63516
H         78.97133       29.06650       -9.05694
H         79.61858       29.50426       -6.70132
H         78.38308       30.78555       -6.52570
H         80.65900       30.78223       -8.64076
H         80.83227       31.52044       -7.01743
N         76.25373       28.79663       -7.04743
C         75.22471       27.87438       -6.62080
H         74.29667       28.10099       -7.19249
H         75.49593       26.81648       -6.81165
H         75.01321       28.01950       -5.54253
H         76.08316       29.79301       -6.87208
Ca        81.03753       35.28758      -10.25600
O         83.25159       33.42133       -9.06828
H         82.80380       32.95348       -8.32095
H         83.74431       32.69953       -9.52735
O         79.96145       33.78903      -11.99271
H         79.38079       33.40181      -11.28969
H         79.72288       33.32993      -12.82910
O         83.34053       36.63849       -8.98378
H         82.99668       36.59892       -8.06141
H         84.22805       37.06602       -8.89782

Ca 1.0



