%chk=apoCaM-CA-Ng.loop2.water4.frame1350.chk
%nprocshared=20
%mem=10GB
%nosave
#b3lyp/svp scf=(tight,noincore,xqc) Test 
#IOP(5/87=12) Density=Current Pop=(MK,readradii) iop(6/33=2) iop(6/42=6)

apoCaM-CA-Ng.loop2.water4.frame1350 

   -2  1 
C         59.00849       61.26555       88.58389
C         59.07169       61.15232       87.08370
O         60.00768       61.68219       86.50326
H         58.07456       61.78680       88.88332
H         59.04052       60.25578       89.04433
H         59.87013       61.85015       88.97101
N         58.12652       60.49328       86.35136
C         56.96259       59.81659       86.91869
C         55.64777       60.46149       86.50208
O         54.62267       60.02531       87.00815
C         56.99154       58.30886       86.56839
C         56.88306       57.97253       85.10116
O         56.89904       56.68218       84.71987
O         56.77104       58.84096       84.25382
H         58.24947       60.47729       85.32905
H         56.98534       59.88153       88.02421
H         56.15030       57.80312       87.08961
H         57.94002       57.87617       86.95240
N         55.58138       61.49142       85.60357
C         54.32654       62.14049       85.23752
C         53.93081       61.87802       83.79004
O         52.84689       62.30101       83.41180
C         54.44948       63.64445       85.50586
H         56.44130       61.84219       85.15784
H         53.49387       61.74899       85.86072
H         55.25565       64.08434       84.87855
H         53.49588       64.16640       85.27970
H         54.69989       63.81962       86.57430
N         54.73688       61.19626       82.92253
C         54.37134       60.90700       81.53828
C         54.48041       59.42703       81.20225
O         54.93739       58.63603       82.01368
C         55.22789       61.76006       80.57156
C         56.67860       61.99416       80.95738
O         57.05422       63.14945       81.07934
O         57.58843       61.02016       81.18047
H         55.66777       60.88934       83.23133
H         53.30554       61.16565       81.34836
H         54.75800       62.76918       80.54427
H         55.15949       61.36414       79.53666
N         54.02930       58.98730       79.98918
C         54.19332       57.62758       79.49622
C         55.60542       57.40100       78.99715
O         56.42314       58.30355       79.09045
H         53.55026       59.65582       79.36670
H         53.53167       57.49252       78.61364
H         53.88996       56.88781       80.26883
N         55.95552       56.22474       78.39822
C         57.30976       55.96867       77.89324
C         57.72541       56.97457       76.82387
O         56.92288       57.80237       76.41242
C         57.42847       54.53997       77.31368
C         57.15049       53.46877       78.33623
N         56.15957       52.56845       78.14028
O         57.84267       53.39790       79.34071
H         55.23706       55.48916       78.31348
H         58.02017       56.06927       78.74227
H         58.45915       54.36383       76.94139
H         56.73586       54.44209       76.44935
H         55.57429       52.60180       77.29291
H         55.98234       51.82740       78.83418
N         58.99948       56.95829       76.33323
C         59.48618       57.91194       75.34980
C         59.56541       59.31176       75.92288
O         59.25109       59.49744       77.09011
H         59.66264       56.24548       76.67122
H         58.83053       57.88741       74.45351
H         60.51110       57.61246       75.04865
N         59.97844       60.38138       75.19042
C         60.36014       60.34746       73.77988
C         61.59122       59.48786       73.51554
O         61.61736       58.81774       72.49262
C         60.61547       61.78402       73.24629
C         59.33527       62.63278       73.24835
O         61.60392       62.41915       74.01610
H         59.99471       61.29170       75.67713
H         59.51797       59.93957       73.17648
H         60.95675       61.69625       72.18724
H         61.93940       63.18535       73.48075
H         59.54982       63.63536       72.82062
H         58.55435       62.15033       72.62309
H         58.93801       62.77266       74.27454
N         62.66286       59.49456       74.35915
C         63.93625       58.83002       74.06980
C         64.20539       57.74443       75.10751
O         64.12065       58.05675       76.28829
C         65.07584       59.89405       74.10070
C         64.78445       61.02686       73.08393
C         66.44351       59.24203       73.81552
C         65.77932       62.18500       73.14947
H         62.59528       60.03761       75.23430
H         63.93014       58.39683       73.05249
H         65.10756       60.33773       75.12183
H         63.79348       61.46332       73.30445
H         64.75494       60.61738       72.05099
H         66.46619       58.81024       72.79277
H         67.27010       59.97186       73.91495
H         66.65171       58.44012       74.54978
H         65.80346       62.61049       74.17553
H         66.79784       61.86434       72.85526
H         65.45952       62.98048       72.44424
N         64.61267       56.47058       74.80301
C         64.85103       55.93682       73.45380
C         65.85647       54.77281       73.46595
O         66.29243       54.36209       74.53049
C         63.50668       55.54513       72.79843
C         62.70218       54.60258       73.65495
O         63.18754       53.39018       73.98191
O         61.60020       54.93841       74.06091
H         64.82595       55.86242       75.60799
H         65.36235       56.70402       72.83941
H         63.67718       55.08558       71.80253
H         62.90040       56.45776       72.63372
N         66.29899       54.22292       72.28711
C         67.29902       53.14966       72.22651
C         68.50280       53.55778       71.37303
O         68.28294       54.19453       70.35418
C         66.71921       51.82135       71.67730
C         66.52577       51.76589       70.17318
C         65.53859       52.52368       69.52141
C         67.36488       50.93414       69.40304
C         65.40240       52.45621       68.12959
C         67.22609       50.87207       68.01511
C         66.24615       51.63363       67.37780
H         65.92623       54.59538       71.40511
H         67.61504       52.89922       73.25034
H         65.78340       51.54764       72.20912
H         67.46490       51.03956       71.94295
H         64.86936       53.15977       70.08100
H         68.13804       50.33844       69.87378
H         64.64133       53.04217       67.63177
H         67.88106       50.23429       67.43454
H         66.14060       51.58411       66.30170
N         69.78222       53.11634       71.61664
C         70.23162       52.30978       72.74040
C         70.00260       52.99242       74.06879
O         69.40927       52.39161       74.95171
C         71.73692       52.12676       72.48764
C         71.79374       52.13568       70.97816
C         70.85517       53.29495       70.65605
H         69.72509       51.31947       72.69712
H         72.30393       53.02677       72.81719
H         72.17996       51.23676       72.98365
H         72.81054       52.22616       70.54061
H         71.32868       51.18985       70.61371
H         71.33937       54.28012       70.83526
H         70.52384       53.20351       69.59869
N         70.41547       54.27941       74.25895
C         70.17427       54.99323       75.50283
C         71.01638       54.35663       76.60284
O         72.23200       54.40496       76.47373
C         70.53157       56.49848       75.39232
C         69.59174       57.31203       74.47981
C         69.70953       56.98513       73.01998
O         70.88132       57.16385       72.37992
O         68.73893       56.58065       72.40072
H         70.89009       54.76077       73.48430
H         69.09328       54.96190       75.70892
H         71.59150       56.64018       75.08625
H         70.41235       56.93575       76.40878
H         69.83410       58.39025       74.59410
H         68.54716       57.15706       74.82274
N         70.51250       53.73363       77.71142
C         69.11492       53.52639       78.04231
H         68.39745       53.91007       77.30290
H         68.92805       52.43645       78.14037
H         68.89392       54.01249       79.01467
H         71.19008       53.35151       78.38950
Ca        57.57369       58.77932       81.44921
O         59.81807       56.90384       82.81833
H         59.56642       56.15138       83.41065
H         60.69151       56.63735       82.43571
O         60.02406       57.95508       79.69783
H         59.13226       58.19808       79.34559
H         60.54417       58.79562       79.64630
O         57.08901       55.62211       81.89545
H         57.23779       55.44345       80.93474
H         56.13664       55.39727       82.04346
O         59.82257       60.23447       83.09663
H         59.35907       61.09941       83.22935
H         60.55975       60.44318       82.46995

Ca 1.0



