%chk=apoCaM-CA-Ng.loop2.water4.frame1373.chk
%nprocshared=20
%mem=10GB
%nosave
#b3lyp/svp scf=(tight,noincore,xqc) Test 
#IOP(5/87=12) Density=Current Pop=(MK,readradii) iop(6/33=2) iop(6/42=6)

apoCaM-CA-Ng.loop2.water4.frame1373 

   -2  1 
C          1.01631       47.11622       63.47013
C          2.43589       47.50694       63.79054
O          3.13358       47.93636       62.88351
H          0.30934       47.73260       64.06491
H          0.79539       47.28288       62.39380
H          0.85709       46.04028       63.69269
N          2.96859       47.40715       65.04485
C          2.24337       46.91810       66.21664
C          2.85899       45.65613       66.81767
O          2.26477       45.12653       67.74662
C          2.10500       48.04676       67.26633
C          3.39206       48.56037       67.86655
O          4.47582       48.09846       67.55237
O          3.34057       49.54863       68.77894
H          3.94563       47.71351       65.16691
H          1.21023       46.63508       65.93266
H          1.46475       47.68482       68.09948
H          1.58322       48.90337       66.78689
N          4.02061       45.10477       66.35030
C          4.58938       43.86341       66.87507
C          5.94568       44.07085       67.54453
O          6.52006       43.09329       68.00369
C          4.71971       42.86730       65.71801
H          4.52797       45.56139       65.57865
H          3.91946       43.41389       67.63944
H          5.41008       43.26433       64.94174
H          5.11113       41.89287       66.07938
H          3.72579       42.69381       65.25317
N          6.51699       45.30409       67.64439
C          7.82799       45.56524       68.23672
C          7.69988       46.53320       69.41122
O          6.59033       46.91492       69.75994
C          8.75576       46.12550       67.12977
C          8.19305       47.38314       66.52560
O          7.89243       47.41605       65.34360
O          7.94523       48.44795       67.31037
H          6.01596       46.11607       67.26344
H          8.29393       44.63188       68.62175
H          8.86471       45.35141       66.33786
H          9.77132       46.32913       67.52590
N          8.81654       47.01035       70.03522
C          8.78908       47.99665       71.10497
C          9.35723       49.31859       70.63127
O          9.67545       49.45862       69.45804
H          9.74474       46.70072       69.71323
H          9.37576       47.60615       71.96366
H          7.75373       48.19093       71.45885
N          9.48175       50.35778       71.50453
C          9.91889       51.69325       71.09792
C         11.30215       51.66440       70.46697
O         12.25161       51.23103       71.10485
C          9.92112       52.67414       72.29215
C          8.55507       52.92392       72.89306
N          8.42524       53.79390       73.92076
O          7.56286       52.36022       72.45442
H          9.22048       50.19564       72.48979
H          9.19425       52.08674       70.35045
H         10.30403       53.65647       71.93773
H         10.60414       52.29669       73.08439
H          9.24791       54.28542       74.29989
H          7.50012       53.98218       74.33480
N         11.46944       52.13750       69.19788
C         12.73619       52.17446       68.48269
C         12.65830       51.34350       67.21587
O         11.64037       50.70349       66.99466
H         10.64865       52.50853       68.69956
H         13.56754       51.79145       69.11120
H         12.94855       53.23179       68.21878
N         13.68554       51.24964       66.32245
C         14.96810       51.93996       66.42253
C         15.29196       52.73828       65.15305
O         16.39278       53.26669       65.08776
C         16.09322       50.89926       66.67931
C         15.90904       50.14927       68.00839
O         16.21848       49.99919       65.60377
H         13.55396       50.61103       65.52193
H         14.98204       52.64857       67.27644
H         17.05949       51.44251       66.77048
H         15.47911       49.33990       65.66068
H         14.96531       49.56405       68.01110
H         16.75813       49.45091       68.16590
H         15.88756       50.86907       68.85398
N         14.42350       52.84291       64.09625
C         14.78682       53.43557       62.80501
C         13.85271       54.60814       62.47263
O         12.65004       54.38583       62.46697
C         14.67529       52.34902       61.68853
C         15.47547       51.07196       62.06365
C         15.15925       52.92532       60.34057
C         15.29931       49.92537       61.06465
H         13.48266       52.43031       64.16671
H         15.84552       53.75330       62.81292
H         13.60578       52.05661       61.58974
H         15.10816       50.68571       63.03788
H         16.55611       51.30947       62.17057
H         16.23455       53.20110       60.39947
H         15.02155       52.20218       59.51387
H         14.57736       53.82701       60.06363
H         15.83643       49.02734       61.43542
H         14.22254       49.67250       60.95750
H         15.71952       50.17844       60.07128
N         14.28225       55.85934       62.10375
C         15.68302       56.27403       62.03502
C         15.89703       57.59324       61.28997
O         14.94883       58.30885       60.99800
C         16.25242       56.44975       63.46817
C         15.53968       57.54381       64.22748
O         14.22135       57.44577       64.48812
O         16.15543       58.52533       64.61137
H         13.55423       56.53086       61.81431
H         16.24025       55.50726       61.45643
H         17.33539       56.69146       63.40962
H         16.15746       55.52605       64.05958
N         17.17394       57.98574       61.00922
C         17.54983       59.30805       60.52546
C         18.30723       59.23433       59.20247
O         19.30596       58.52668       59.15653
C         18.49793       59.92863       61.57608
C         18.96332       61.30386       61.16785
C         20.30354       61.51860       60.80096
C         18.05934       62.37657       61.13228
C         20.72716       62.78634       60.39472
C         18.48909       63.64501       60.73332
C         19.82096       63.84922       60.36189
H         17.94170       57.33053       61.22634
H         16.66262       59.96278       60.44227
H         19.37721       59.25359       61.68660
H         18.00575       59.98466       62.57090
H         21.01647       60.70296       60.81218
H         17.02403       62.22875       61.41318
H         21.75743       62.94313       60.10234
H         17.78804       64.46852       60.70892
H         20.15080       64.83049       60.04773
N         17.98861       60.00865       58.11472
C         16.85109       60.91313       57.98548
C         15.53161       60.18909       58.09113
O         14.65608       60.62968       58.82289
C         17.00684       61.49904       56.57371
C         18.50762       61.50610       56.41132
C         18.86703       60.13159       56.96797
H         16.93895       61.72975       58.73329
H         16.62051       60.78735       55.80835
H         16.49839       62.47650       56.42738
H         18.87211       61.70055       55.38070
H         18.92047       62.28680       57.09295
H         18.63379       59.31943       56.24469
H         19.94627       60.12622       57.23590
N         15.34566       59.03053       57.40138
C         14.11181       58.26646       57.45502
C         13.06342       58.97848       56.60817
O         13.29665       59.08971       55.41207
C         14.35015       56.83680       56.91809
C         15.34658       56.06449       57.80534
C         15.62214       54.69594       57.25627
O         14.71528       53.89067       57.11938
O         16.87964       54.34584       56.92375
H         16.13307       58.66270       56.84511
H         13.82250       58.13693       58.51035
H         14.73877       56.88716       55.87605
H         13.38487       56.28404       56.90746
H         14.93282       55.96847       58.83211
H         16.31029       56.61261       57.87398
N         11.89693       59.50847       57.08433
C         11.44497       59.53270       58.46173
H         10.47261       59.00370       58.53547
H         12.13707       59.07652       59.18417
H         11.29746       60.58894       58.77068
H         11.26674       59.95852       56.40181
Ca         6.63556       50.13878       66.61420
O          8.78343       52.02129       66.97266
H          9.10729       51.15567       66.61757
H          9.40000       52.69196       66.58660
O          4.63233       52.26579       66.86554
H          4.05164       52.12698       67.65515
H          4.36507       53.14955       66.50924
O          6.03036       50.07998       63.69970
H          6.60489       49.31103       63.94190
H          6.56855       50.87589       63.94037
O          6.28051       51.49489       69.68763
H          5.39099       51.69998       70.07146
H          6.63738       50.77183       70.26212

Ca 1.0



