%chk=apoCaM-CA-Ng.loop4.water3.frame268.chk
%nprocshared=20
%mem=10GB
%nosave
#b3lyp/svp scf=(tight,noincore,xqc) Test 
#IOP(5/87=12) Density=Current Pop=(MK,readradii) iop(6/33=2) iop(6/42=6)

apoCaM-CA-Ng.loop4.water3.frame268 

   -3  1 
C         46.49529       28.69964       15.22217
C         47.85910       28.12212       15.43959
O         48.13939       27.71228       16.54911
H         45.90882       28.67377       16.16783
H         46.58112       29.75182       14.88443
H         45.95630       28.10035       14.45967
N         48.75161       28.03145       14.41227
C         50.07964       27.43140       14.52053
C         50.01164       25.97506       14.92339
O         50.52872       25.62025       15.96275
C         51.11755       28.29414       15.29935
C         50.82885       28.94786       16.64291
O         50.53824       28.29648       17.79292
O         50.95680       30.16032       16.71181
H         48.45441       28.36391       13.48244
H         50.52202       27.38801       13.49835
H         51.35569       29.13899       14.61315
H         52.05675       27.70592       15.38647
N         49.42050       25.07508       14.08014
C         49.30269       23.62417       14.26354
C         50.65361       22.90865       14.16682
O         50.84058       22.19036       13.19317
C         48.45811       23.25905       15.51200
C         48.25712       21.72846       15.68436
C         47.09686       23.98275       15.44272
C         47.53439       21.02813       14.52586
H         49.00533       25.45173       13.21326
H         48.71974       23.26703       13.38426
H         48.98799       23.60948       16.42243
H         47.67430       21.55506       16.61529
H         49.24539       21.24015       15.82138
H         47.23526       25.08390       15.45130
H         46.54225       23.71830       14.51888
H         46.46620       23.71943       16.30903
H         46.51719       21.44315       14.37459
H         48.10759       21.11042       13.58119
H         47.43085       19.94787       14.75809
N         51.64999       23.05469       15.09021
C         52.97111       22.47202       14.90362
C         52.97317       20.97647       15.18039
O         53.27755       20.25156       14.24259
C         54.05816       23.25604       15.66912
C         54.17226       24.66763       15.14789
O         53.98454       25.71407       15.97177
O         54.45112       24.87093       13.97607
H         51.50873       23.63598       15.91794
H         53.25826       22.60303       13.83269
H         55.04244       22.76285       15.51375
H         53.84716       23.28984       16.75276
N         52.65881       20.37866       16.37131
C         52.25959       21.04152       17.61655
C         51.93925       20.02702       18.72448
O         52.02528       18.83484       18.46420
H         52.71192       19.34960       16.35680
H         51.35501       21.65346       17.42658
H         53.08830       21.67763       17.95849
N         51.53499       20.35214       19.99362
C         51.36290       21.66705       20.59899
C         50.32786       22.52479       19.87863
O         50.70516       23.50843       19.25776
C         52.72019       22.37376       20.81692
C         52.62887       23.55859       21.75327
O         53.74410       24.24881       22.05405
O         51.56958       23.88440       22.26854
H         51.32285       19.55810       20.62006
H         50.99168       21.49802       21.63418
H         53.15406       22.70920       19.85885
H         53.42066       21.65104       21.28767
N         48.98546       22.29484       19.97007
C         48.36298       21.22924       20.72894
C         48.50228       19.90469       20.04505
O         49.03819       19.83552       18.94690
H         48.35069       22.95732       19.51620
H         47.26925       21.42515       20.79446
H         48.75608       21.20985       21.76623
N         47.95590       18.80105       20.61527
C         47.95984       17.50548       19.96254
C         46.60540       17.23768       19.32138
O         46.46640       16.21209       18.67530
C         48.41246       16.41092       20.94975
C         49.82291       16.71461       21.50004
C         50.36470       15.64662       22.41859
N         51.59212       15.79884       22.96904
O         49.71103       14.64434       22.66890
H         47.44147       18.90316       21.50617
H         48.68168       17.49968       19.11493
H         48.43589       15.43559       20.41604
H         47.69035       16.33786       21.79297
H         49.79987       17.67167       22.06510
H         50.52991       16.82383       20.64921
H         52.15682       16.63817       22.76988
H         51.98098       15.07841       23.59550
N         45.58988       18.15988       19.39130
C         44.33907       18.04181       18.64470
C         43.13638       17.88778       19.55739
O         42.06141       17.59141       19.04585
C         44.15897       19.26706       17.70302
C         45.34956       19.40437       16.74656
C         43.96607       20.59214       18.46869
H         45.71238       19.01102       19.94907
H         44.37228       17.12329       18.01991
H         43.24544       19.10037       17.09046
H         45.17620       20.25321       16.05314
H         46.28968       19.59850       17.30777
H         45.47626       18.47943       16.14684
H         44.85630       20.85831       19.07560
H         43.79150       21.41479       17.74516
H         43.08267       20.54065       19.13914
N         43.22499       18.06596       20.90346
C         42.13199       17.81380       21.82686
C         41.71702       19.08881       22.53650
O         40.54260       19.42101       22.49465
C         42.58573       16.73975       22.83026
C         42.98081       15.47582       22.10170
N         44.25919       15.03098       22.12967
O         42.14090       14.86099       21.46069
H         44.12144       18.35411       21.32163
H         41.23643       17.41716       21.29393
H         41.77068       16.50848       23.54964
H         43.45306       17.12644       23.40874
H         44.98798       15.54370       22.64720
H         44.52757       14.17886       21.61532
N         42.62779       19.85140       23.21262
C         42.26112       21.03393       23.99381
C         42.91441       22.28495       23.43834
O         43.78680       22.16031       22.59991
C         42.78688       20.83878       25.43065
C         42.31528       19.55191       26.05228
C         40.97156       19.38024       26.41253
C         43.23023       18.50855       26.27897
C         40.55118       18.18399       27.00272
C         42.80631       17.31106       26.85616
C         41.46863       17.14504       27.22548
O         41.07851       15.98721       27.79436
H         43.61914       19.57180       23.20100
H         41.15940       21.17909       23.98882
H         42.51638       21.69129       26.08983
H         43.89936       20.81678       25.36774
H         40.25608       20.17624       26.24846
H         44.27176       18.61651       26.00038
H         39.51394       18.06664       27.28796
H         43.52077       16.51373       27.01903
H         40.16553       15.83479       28.07577
N         42.58044       23.51204       23.95519
C         43.24158       24.80099       23.70825
C         43.06965       25.38867       22.30804
O         42.48280       26.45683       22.20065
C         44.72779       24.75207       24.11549
C         44.88498       24.39036       25.60141
C         46.32858       24.35828       26.00464
O         46.78071       25.19315       26.95964
O         47.09582       23.56532       25.48239
H         41.83526       23.52796       24.66785
H         42.75822       25.53957       24.39066
H         45.17929       25.75599       23.95110
H         45.27717       24.02162       23.48473
H         44.44147       23.39425       25.80832
H         44.35014       25.14675       26.21744
N         43.60320       24.80010       21.20331
C         43.57299       25.38088       19.86521
C         42.14295       25.65983       19.44398
O         41.82801       26.80430       19.14763
C         44.24620       24.43508       18.83298
C         45.68430       23.97552       19.16449
C         46.71591       25.06497       19.16070
O         46.64956       25.99797       19.94336
O         47.78054       24.94223       18.34511
H         44.08825       23.91930       21.32118
H         44.13300       26.34146       19.88007
H         44.24093       24.91563       17.82941
H         43.63336       23.51388       18.76770
H         45.97621       23.21572       18.41180
H         45.73795       23.45074       20.13524
N         41.21790       24.65872       19.42378
C         39.82980       24.86007       19.06064
H         39.18362       24.58047       19.91911
H         39.60977       25.91367       18.78773
H         39.57837       24.21305       18.19499
H         41.50064       23.70538       19.69576
Ca        49.53633       26.34211       18.29625
O         52.84117       25.75980       19.09065
H         53.56892       25.08956       19.12156
H         52.60734       25.83034       18.13203
O         50.45871       26.84928       21.43041
H         51.09954       26.16207       21.12173
H         49.71181       26.33318       21.82548
O         48.72266       28.94111       20.12675
H         48.10634       28.17269       20.22032
H         48.32827       29.48713       19.40148

Ca 1.0



