%chk=apoCaM-CA-Ng.loop2.water5.frame1468.chk
%nprocshared=20
%mem=10GB
%nosave
#b3lyp/svp scf=(tight,noincore,xqc) Test 
#IOP(5/87=12) Density=Current Pop=(MK,readradii) iop(6/33=2) iop(6/42=6)

apoCaM-CA-Ng.loop2.water5.frame1468 

   -2  1 
C         50.66209       77.33370       76.79470
C         52.05573       77.26429       77.36520
O         52.16550       77.00582       78.55462
H         50.07794       78.10446       77.33738
H         50.62839       77.57631       75.71682
H         50.16947       76.34721       76.93739
N         53.18950       77.43508       76.62258
C         53.21276       77.69721       75.18588
C         52.82175       79.12694       74.80795
O         52.75244       79.38461       73.61381
C         54.59022       77.32544       74.58796
C         55.75813       78.12463       75.10203
O         56.87877       77.86782       74.69333
O         55.59356       79.11225       76.00331
H         54.08836       77.28715       77.10788
H         52.50460       76.99359       74.69556
H         54.54867       77.43743       73.48191
H         54.78236       76.25245       74.80818
N         52.54214       80.10082       75.73202
C         52.12480       81.45061       75.34628
C         52.99943       82.56567       75.91166
O         52.75101       83.70830       75.54803
C         50.67923       81.66883       75.80191
H         52.57601       79.87462       76.73598
H         52.14754       81.55998       74.24025
H         50.02027       80.89523       75.35434
H         50.60906       81.60247       76.90928
H         50.31134       82.66683       75.47921
N         53.99717       82.35482       76.82116
C         54.74770       83.46726       77.40181
C         55.57261       84.22272       76.37022
O         55.58968       85.44531       76.42615
C         55.58180       83.06046       78.64096
C         56.68933       82.06190       78.44856
O         56.91263       81.54905       77.36789
O         57.44693       81.72004       79.50732
H         54.18669       81.40256       77.16181
H         54.01038       84.18843       77.82637
H         54.88807       82.64510       79.40412
H         56.03217       83.98486       79.06587
N         56.27622       83.57807       75.39666
C         57.06383       84.31120       74.42211
C         57.81396       83.37341       73.46348
O         58.81806       82.70602       74.17086
H         56.22690       82.55349       75.33105
H         57.81263       84.94869       74.94302
H         56.37855       84.96923       73.84451
N         58.38405       84.16108       72.36263
C         59.23753       83.38840       71.43488
C         60.65402       83.29207       71.97871
O         61.17988       84.28719       72.46024
C         59.26539       84.08960       70.05801
C         60.09640       83.33375       69.04920
N         61.16247       83.91911       68.45648
O         59.79997       82.18328       68.76152
H         57.55712       84.52866       71.83551
H         58.81162       82.37179       71.26686
H         59.64769       85.12643       70.17916
H         58.22963       84.15126       69.65782
H         61.42610       84.88919       68.68211
H         61.72655       83.40115       67.76678
N         61.35703       82.12833       71.86569
C         62.72033       81.96818       72.34825
C         62.77111       81.93320       73.85938
O         61.73455       82.06509       74.49327
H         60.92586       81.32962       71.37822
H         63.35801       82.78783       71.94678
H         63.12088       81.00248       71.97721
N         63.93369       81.76097       74.54564
C         65.24280       81.55822       73.93573
C         65.37819       80.11865       73.44778
O         65.89371       79.92397       72.35588
C         66.35241       82.00445       74.92660
C         67.76003       81.86214       74.33945
O         66.16943       83.36637       75.23401
H         63.87874       81.76978       75.57710
H         65.36573       82.24576       73.06942
H         66.31805       81.39596       75.85943
H         65.48394       83.42737       75.94808
H         67.85333       82.44955       73.39997
H         68.50594       82.25334       75.06591
H         67.99975       80.79943       74.13389
N         64.88847       79.06851       74.17811
C         64.92905       77.67029       73.72283
C         63.50946       77.10307       73.58920
O         62.61122       77.68636       74.17762
C         65.75126       76.79939       74.73062
C         65.07954       76.74471       76.13846
C         67.19736       77.31556       74.81548
C         65.80852       75.85796       77.14642
H         64.43842       79.27681       75.08089
H         65.41715       77.63699       72.72979
H         65.79241       75.76206       74.33602
H         64.05393       76.33080       76.03313
H         64.99893       77.75726       76.58364
H         67.22720       78.33823       75.24828
H         67.82383       76.64666       75.43998
H         67.65452       77.33576       73.80464
H         65.22592       75.81919       78.09219
H         65.91199       74.83338       76.74118
H         66.80916       76.26348       77.39473
N         63.18946       75.94618       72.92329
C         64.04600       75.20440       71.99935
C         64.48803       73.87040       72.57170
O         63.66340       73.06459       72.97594
C         63.35110       75.00314       70.62802
C         62.12018       74.12528       70.65097
O         61.01153       74.50236       71.31510
O         62.11280       73.07334       70.03114
H         62.22733       75.60160       73.04372
H         64.95235       75.79456       71.77311
H         64.09499       74.53467       69.94410
H         63.07806       75.98986       70.19709
N         65.81947       73.58650       72.60455
C         66.40785       72.36757       73.13658
C         67.30877       72.77709       74.29220
O         68.09217       73.69657       74.10527
C         67.25742       71.68192       72.03856
C         67.90808       70.42287       72.56726
C         69.23877       70.45461       73.02010
C         67.18138       69.22187       72.65791
C         69.82582       69.31176       73.57009
C         67.77758       68.07689       73.19998
C         69.09629       68.12412       73.66090
H         66.47617       74.29091       72.23488
H         65.62758       71.65159       73.46313
H         68.04221       72.39419       71.70026
H         66.64602       71.43437       71.14271
H         69.81282       71.37131       72.97216
H         66.15420       69.17494       72.31862
H         70.84446       69.35003       73.93403
H         67.21498       67.15499       73.27307
H         69.55243       67.24195       74.09190
N         67.32560       72.12786       75.49592
C         66.60782       70.91120       75.82043
C         65.13639       71.12609       76.13772
O         64.32450       70.39235       75.59384
C         67.43080       70.33149       76.97876
C         67.94392       71.55756       77.70152
C         68.27291       72.48879       76.53740
H         66.67590       70.15197       75.01932
H         66.91795       69.56521       77.59682
H         68.33442       69.85542       76.52909
H         67.11454       71.97278       78.29829
H         68.78982       71.38779       78.39961
H         68.18967       73.55142       76.85307
H         69.29534       72.28763       76.14841
N         64.71627       72.07333       77.02313
C         63.34056       72.18547       77.48335
C         63.34732       72.00800       78.99669
O         63.98298       72.80610       79.67061
C         62.75426       73.54420       77.06564
C         61.29039       73.69905       77.50549
C         60.70703       74.97369       76.97430
O         60.62684       75.15205       75.76945
O         60.25252       75.91730       77.82050
H         65.39344       72.73103       77.41950
H         62.71119       71.41256       77.00075
H         62.81016       73.60948       75.95607
H         63.35412       74.37324       77.49539
H         61.23297       73.69926       78.61597
H         60.68405       72.85090       77.12112
N         62.69934       70.98895       79.62997
C         61.92158       69.97884       78.94788
H         61.07223       70.45243       78.41168
H         62.56154       69.41908       78.23275
H         61.51108       69.25783       79.68606
H         62.76915       70.92498       80.65770
Ca        57.93778       80.67436       74.69179
O         59.06718       79.18544       72.49417
H         60.01482       78.91919       72.59930
H         58.93580       79.27389       71.51739
O         55.53334       80.33704       72.82651
H         55.47843       81.31693       72.95595
H         56.22357       80.21424       72.12755
O         59.97862       81.27525       76.96534
H         59.90269       82.26171       76.99874
H         60.94874       81.10247       76.87082
O         59.93601       78.53692       75.46722
H         60.05936       77.59259       75.20150
H         60.84871       78.86548       75.66186
O         58.18221       78.65345       77.76782
H         57.89334       79.26398       78.49012
H         57.95252       77.75078       78.10184

Ca 1.0



