%chk=apoCaM-CA-Ng.loop4.water4.frame270.chk
%nprocshared=20
%mem=10GB
%nosave
#b3lyp/svp scf=(tight,noincore,xqc) Test 
#IOP(5/87=12) Density=Current Pop=(MK,readradii) iop(6/33=2) iop(6/42=6)

apoCaM-CA-Ng.loop4.water4.frame270 

   -3  1 
C         47.68542       23.66996        6.99814
C         49.10424       23.31080        6.68510
O         49.84315       23.04719        7.61338
H         47.00501       22.92893        6.53033
H         47.51699       23.65024        8.09897
H         47.45909       24.68671        6.62104
N         49.54815       23.24221        5.39555
C         50.89598       22.81894        5.01802
C         51.17331       21.40166        5.48003
O         52.01461       21.19460        6.33147
C         52.00503       23.88268        5.28494
C         52.07012       24.72760        6.54897
O         52.31435       24.25904        7.79209
O         51.98333       25.93928        6.42037
H         48.87711       23.44126        4.63871
H         50.93599       22.72229        3.90833
H         51.86904       24.62853        4.46772
H         52.99646       23.41742        5.09824
N         50.46826       20.37710        4.90667
C         50.52885       18.94571        5.22320
C         51.83346       18.27022        4.76973
O         51.74844       17.42058        3.89260
C         50.10283       18.66725        6.69056
C         49.97438       17.15253        7.01141
C         48.76803       19.38535        6.99209
C         48.91119       16.38933        6.20984
H         49.77377       20.63987        4.18952
H         49.73625       18.48141        4.59528
H         50.87714       19.07809        7.37263
H         49.73012       17.04822        8.09085
H         50.94529       16.65249        6.83827
H         47.97148       19.07107        6.28613
H         48.42267       19.17330        8.01863
H         48.87859       20.48361        6.90190
H         48.89986       15.32864        6.53670
H         47.89725       16.80377        6.38317
H         49.13584       16.40003        5.12479
N         53.06596       18.59076        5.26355
C         54.29755       18.01742        4.72507
C         54.48763       16.55409        5.10725
O         54.66884       15.76352        4.19186
C         55.55022       18.84781        5.09882
C         55.54338       20.24924        4.54063
O         56.60305       21.04955        4.76392
O         54.60620       20.66871        3.87886
H         53.15790       19.30601        5.98705
H         54.26111       18.07916        3.61183
H         56.44730       18.33998        4.68078
H         55.67948       18.91857        6.18665
N         54.51389       16.07236        6.38775
C         54.11935       16.80732        7.58181
C         54.60150       16.12357        8.85491
O         54.47753       14.90913        8.92543
H         54.67689       15.05810        6.48937
H         53.01518       16.78794        7.61353
H         54.38956       17.86190        7.52856
N         55.07726       16.78356        9.95978
C         55.17348       18.22884       10.15786
C         53.81245       18.87724        9.89599
O         53.71152       19.72249        9.01822
C         56.37430       18.79389        9.36877
C         56.64629       20.23725        9.68600
O         56.90476       20.61552       10.95275
O         56.67282       21.06696        8.79295
H         55.32108       16.20249       10.77773
H         55.43296       18.41443       11.22381
H         56.24670       18.66431        8.28441
H         57.27919       18.21942        9.66087
N         52.68428       18.48912       10.56724
C         52.66071       17.54188       11.66716
C         52.15008       16.20021       11.22119
O         51.70786       16.04977       10.08979
H         51.77746       18.85834       10.26401
H         52.06430       17.94655       12.51259
H         53.67765       17.37711       12.06374
N         52.29298       15.13703       12.05638
C         52.07207       13.76557       11.61735
C         50.60396       13.37152       11.60809
O         50.31828       12.26908       11.16240
C         52.96659       12.80045       12.42795
C         54.45729       13.11603       12.15287
C         55.43308       12.19312       12.83349
N         56.75962       12.35139       12.61214
O         55.04355       11.30214       13.57375
H         52.73352       15.30321       12.97530
H         52.41692       13.67081       10.56231
H         52.77188       11.75698       12.09773
H         52.73689       12.87879       13.51379
H         54.69690       14.15385       12.46809
H         54.63684       13.03452       11.05880
H         57.10148       13.09463       11.98376
H         57.44770       11.72864       13.05997
N         49.61516       14.22467       12.01316
C         48.19098       13.92530       11.85285
C         47.43375       13.88092       13.17073
O         46.25359       13.55681       13.13021
C         47.53300       14.93766       10.87354
C         48.13268       14.81031        9.46732
C         47.64190       16.39258       11.35541
H         49.87198       15.14165       12.40124
H         48.05982       12.91276       11.41129
H         46.45199       14.68813       10.78763
H         49.21642       15.04894        9.47109
H         47.99655       13.77679        9.08450
H         47.61648       15.50532        8.77159
H         47.18871       16.51500       12.36143
H         48.69778       16.73138       11.39297
H         47.10050       17.05060       10.64620
N         48.02153       14.15775       14.37020
C         47.32135       14.01993       15.64533
C         47.24444       15.32672       16.41852
O         46.62245       15.32453       17.47008
C         48.08827       12.99293       16.49794
C         48.25179       11.69032       15.75916
N         49.46990       11.31270       15.30341
O         47.27614       10.98732       15.54361
H         49.01605       14.42526       14.40164
H         46.27903       13.66280       15.48730
H         47.59005       12.81102       17.47584
H         49.09322       13.42047       16.70931
H         50.29610       11.91342       15.44446
H         49.58503       10.43433       14.77795
N         47.86132       16.46958       15.99185
C         47.96812       17.67172       16.82085
C         48.30661       18.88767       15.97812
O         49.10774       18.75829       15.06691
C         49.13517       17.52114       17.82764
C         48.95481       16.42581       18.84281
C         47.91095       16.49326       19.77948
C         49.84106       15.33627       18.87610
C         47.75217       15.48204       20.73037
C         49.68011       14.32612       19.82756
C         48.63774       14.39460       20.75761
O         48.49904       13.41459       21.67249
H         48.36180       16.45892       15.09368
H         47.00796       17.86739       17.34743
H         49.26604       18.46999       18.39248
H         50.06937       17.34823       17.24601
H         47.22186       17.32857       19.77198
H         50.65552       15.26574       18.16544
H         46.94235       15.54656       21.44562
H         50.36871       13.49077       19.84267
H         47.79593       13.42858       22.33731
N         47.87316       20.12805       16.37056
C         48.25333       21.41694       15.77928
C         47.53941       21.72549       14.47616
O         46.85622       22.73908       14.41702
C         49.77977       21.58449       15.60945
C         50.53243       21.45117       16.94137
C         52.02152       21.61935       16.78894
O         52.53135       21.81964       15.69663
O         52.80704       21.54209       17.87914
H         47.29673       20.17642       17.22472
H         47.92750       22.21030       16.49175
H         49.97674       22.59900       15.19687
H         50.17928       20.85578       14.87551
H         50.34446       20.45056       17.38159
H         50.15956       22.22635       17.64500
N         47.67319       20.93122       13.38073
C         47.08693       21.24010       12.08410
C         45.58751       21.40728       12.23363
O         45.06951       22.46189       11.89323
C         47.40458       20.13819       11.03802
C         48.88808       19.70806       10.91878
C         49.83555       20.81180       10.56307
O         49.99887       21.75699       11.31608
O         50.57692       20.70473        9.44478
H         48.22484       20.08312       13.46962
H         47.52416       22.19513       11.71676
H         47.04212       20.48377       10.04417
H         46.83639       19.22547       11.30396
H         48.95512       18.91805       10.14543
H         49.25043       19.23145       11.84894
N         44.84233       20.41687       12.80181
C         43.42278       20.53178       13.06476
H         42.88237       19.71410       12.54589
H         43.24986       20.43949       14.15843
H         43.00595       21.50473       12.73021
H         45.30761       19.54678       13.10162
Ca        52.05202       22.25694        8.76998
O         55.04642       22.86856        7.06401
H         54.78892       22.60275        7.98151
H         54.71818       22.12706        6.49788
O         53.44279       21.93856       11.59057
H         54.27330       21.45606       11.35166
H         52.94356       21.30413       12.16364
O         51.26082       24.77400       10.80751
H         50.78851       25.51399       10.35117
H         50.79367       23.96287       10.49104
O         54.35199       24.56924        9.84573
H         55.01915       24.49620       10.57295
H         54.73267       25.23761        9.22196

Ca 1.0



