%chk=apoCaM-CA-Ng.loop3.water3.frame623.chk
%nprocshared=20
%mem=10GB
%nosave
#b3lyp/svp scf=(tight,noincore,xqc) Test 
#IOP(5/87=12) Density=Current Pop=(MK,readradii) iop(6/33=2) iop(6/42=6)

apoCaM-CA-Ng.loop3.water3.frame623 

   0  1 
C         96.91684       31.02179      -18.62203
C         98.05862       31.63092      -19.38430
O         97.84623       32.20356      -20.44318
H         95.95346       31.17106      -19.15270
H         97.09170       29.93177      -18.49582
H         96.85028       31.49118      -17.61741
N         99.31806       31.53578      -18.88174
C        100.50672       32.08872      -19.52677
C        100.69545       31.44869      -20.89751
O        100.69723       30.22962      -20.99798
C        101.71678       31.85381      -18.59614
C        103.03104       32.48797      -18.98095
O        103.98953       32.31336      -18.24668
O        103.20857       33.22267      -20.09518
H         99.42898       31.04204      -17.98117
H        100.38158       33.18971      -19.62525
H        101.87246       30.75871      -18.48672
H        101.45854       32.26592      -17.59731
N        100.86240       32.23745      -21.99650
C        100.99874       31.75833      -23.37465
C        102.02013       30.64299      -23.49418
O        101.64825       29.56321      -23.93416
C        101.34346       32.97111      -24.27284
C        101.64698       32.66410      -25.74694
C        101.81870       33.99000      -26.50879
C        102.23194       33.78357      -27.96963
N        102.29172       35.06729      -28.67185
H        100.90403       33.25531      -21.83565
H        100.02155       31.34077      -23.70890
H        102.23670       33.48628      -23.85664
H        100.48126       33.67259      -24.21775
H        100.81640       32.08467      -26.20385
H        102.58346       32.06625      -25.80971
H        102.59244       34.61606      -26.01315
H        100.85184       34.53882      -26.47760
H        101.49766       33.12368      -28.48072
H        103.23188       33.29549      -28.00355
H        102.97369       35.70844      -28.20451
H        102.59678       34.90882      -29.65901
H        101.34476       35.51254      -28.68081
N        103.31281       30.82178      -23.11644
C        104.31981       29.76709      -23.20813
C        104.86404       29.36785      -21.84274
O        105.78431       28.56171      -21.80439
C        105.42803       30.15702      -24.21829
C        106.21173       31.41169      -23.94174
O        107.10001       31.74013      -24.71088
O        105.94921       32.19069      -22.88338
H        103.58361       31.74141      -22.74115
H        103.88032       28.83352      -23.62338
H        104.95309       30.27915      -25.21559
H        106.14831       29.31293      -24.29003
N        104.32081       29.82701      -20.67352
C        104.82908       29.41932      -19.37054
C        106.21931       29.95605      -19.08680
O        106.80117       29.55284      -18.09022
H        103.49921       30.44374      -20.69499
H        104.83822       28.30834      -19.32983
H        104.15385       29.77034      -18.56341
N        106.81254       30.86590      -19.91330
C        108.17910       31.33689      -19.77838
C        108.17588       32.87282      -19.50447
O        107.73012       33.62041      -20.60751
C        108.91125       30.90829      -21.08076
C        110.39552       31.13961      -21.11079
N        111.20713       30.53522      -20.21246
O        110.87368       31.87469      -21.96197
H        106.28870       31.22251      -20.71517
H        108.65886       30.84055      -18.90748
H        108.43869       31.42733      -21.94289
H        108.75818       29.81632      -21.22679
H        110.82197       29.90659      -19.49292
H        112.22462       30.69675      -20.23712
N        109.47001       33.35056      -18.97300
C        109.71959       34.79463      -19.04536
C        108.73602       35.59785      -18.24649
O        108.36860       35.18518      -17.15489
H        110.27381       32.89994      -19.44832
H        109.77805       35.14348      -20.10119
H        110.71781       34.97712      -18.59264
N        108.32656       36.81495      -18.70293
C        107.39397       37.65418      -17.95931
C        106.02302       37.00532      -17.91648
O        105.82873       35.97784      -18.55113
C        107.35021       39.08394      -18.56359
C        106.75753       39.14552      -19.95430
C        105.36368       39.12763      -20.13220
C        107.58730       39.23518      -21.08383
C        104.80874       39.17374      -21.41199
C        107.03119       39.27259      -22.36655
C        105.63860       39.23793      -22.53404
O        105.08863       39.26705      -23.76415
H        108.73166       37.16670      -19.58311
H        107.78470       37.75910      -16.92227
H        108.39848       39.45634      -18.58336
H        106.79150       39.78570      -17.90707
H        104.70279       39.09047      -19.28025
H        108.66427       39.25666      -20.97402
H        103.73255       39.15799      -21.52980
H        107.68382       39.32371      -23.22843
H        105.62750       39.29993      -24.56712
N        105.02010       37.56861      -17.18775
C        103.65339       37.06027      -17.11423
C        102.97078       37.13819      -18.47624
O        103.38628       36.45941      -19.40407
C        103.58780       35.62052      -16.51089
C        102.13959       35.06394      -16.43158
C        104.27114       35.56680      -15.13339
C        101.15761       35.90669      -15.61180
H        105.23285       38.42212      -16.64889
H        103.10795       37.73162      -16.41742
H        104.14268       34.91774      -17.16687
H        102.17406       34.04171      -15.99620
H        101.73056       34.96443      -17.45907
H        103.78510       36.25561      -14.41289
H        104.23257       34.53298      -14.72744
H        105.34119       35.85060      -15.21873
H        101.02355       36.91187      -16.05728
H        100.16466       35.41073      -15.61057
H        101.49524       36.01201      -14.56164
N        101.86890       37.92516      -18.64056
C        101.08558       37.97165      -19.87105
C        100.89090       39.39032      -20.40286
O        100.18792       39.53395      -21.39480
C         99.71913       37.33744      -19.57390
O         99.90208       36.01509      -19.14567
H        101.51793       38.46082      -17.83235
H        101.56611       37.37468      -20.67513
H         99.09229       37.33458      -20.49198
H         99.21290       37.93073      -18.77681
H         99.03764       35.72249      -18.75698
N        101.45396       40.48300      -19.80860
C        101.18558       41.85723      -20.22551
C        102.46832       42.55668      -20.64148
O        103.45400       42.41339      -19.93038
C        100.56893       42.61676      -19.05051
H        102.07588       40.35561      -18.99667
H        100.43338       41.89246      -21.03490
H         99.62751       42.12359      -18.72991
H        101.26906       42.65237      -18.18800
H        100.32701       43.65446      -19.36102
N        102.55607       43.41412      -21.70327
C        101.45682       43.79186      -22.59090
C        101.79817       45.09977      -23.29996
O        102.85117       45.15665      -23.92072
C        101.21104       42.70633      -23.64917
H        103.46054       43.89778      -21.82412
H        100.53382       43.92803      -21.99900
H        102.11384       42.55962      -24.27982
H        100.94858       41.73291      -23.19267
H        100.36820       43.01341      -24.30737
N        100.97902       46.19625      -23.31457
C         99.63024       46.25062      -22.74992
C         99.58245       46.27625      -21.22630
O         98.48610       46.18176      -20.69135
C         98.86016       47.46814      -23.32112
C         99.40466       48.83225      -22.85062
C         98.68527       49.95834      -23.53523
O         98.74802       50.07831      -24.74886
O         97.98401       50.85323      -22.81397
H        101.30647       46.99976      -23.87279
H         99.08983       45.34823      -23.11289
H         97.78855       47.39982      -23.02904
H         98.90916       47.40776      -24.43111
H        100.48587       48.93278      -23.07503
H         99.26906       48.92434      -21.75109
N        100.70165       46.44334      -20.46352
C        100.66749       46.52357      -19.01459
H        101.04961       47.51481      -18.69237
H         99.64306       46.39983      -18.60251
H        101.31485       45.73370      -18.58209
H        101.62074       46.55061      -20.91401
Ca       105.41726       33.55923      -20.54489
O        105.25522       34.81583      -24.20556
H        104.72181       34.32936      -24.88160
H        106.18841       34.53361      -24.37783
O        106.86767       36.03736      -22.12042
H        107.25341       36.33853      -21.26176
H        107.62785       36.05858      -22.75434
O        102.96508       35.78809      -22.47301
H        102.17771       35.33821      -22.07621
H        102.61366       36.22894      -23.28697

Ca 1.0



