%chk=apoCaM-CA-Ng.loop1.water1.frame816.chk
%nprocshared=20
%mem=10GB
%nosave
#b3lyp/svp scf=(tight,noincore,xqc) Test 
#IOP(5/87=12) Density=Current Pop=(MK,readradii) iop(6/33=2) iop(6/42=6)

apoCaM-CA-Ng.loop1.water1.frame816 

   0  1 
C         71.84432      -23.55765       53.10155
C         73.33008      -23.65946       52.94242
O         73.90896      -24.62989       53.41056
H         71.35972      -24.43432       52.62652
H         71.59369      -23.53636       54.18314
H         71.44996      -22.63131       52.63302
N         74.02324      -22.67541       52.30492
C         75.47608      -22.69580       52.15973
C         76.17290      -22.81473       53.51622
O         75.56784      -22.51201       54.53326
C         75.96530      -21.46008       51.36610
C         75.55277      -20.14402       51.98137
O         74.81285      -20.11267       53.10871
O         75.96005      -19.09866       51.49988
H         73.49166      -21.88262       51.91409
H         75.74033      -23.60488       51.57617
H         75.55769      -21.49718       50.33344
H         77.07557      -21.49508       51.29908
N         77.40803      -23.38865       53.59380
C         78.06190      -23.77143       54.84741
C         78.83515      -22.61152       55.48095
O         80.05168      -22.69600       55.58889
C         78.96972      -25.01234       54.60197
C         78.14464      -26.26011       54.22246
C         79.04174      -27.47181       53.91773
C         78.24613      -28.76875       53.66435
N         77.34381      -28.66921       52.51499
H         77.82222      -23.72633       52.71087
H         77.30649      -24.11175       55.59240
H         79.52634      -25.25747       55.53489
H         79.71099      -24.77920       53.80606
H         77.52598      -26.03743       53.33026
H         77.47189      -26.51107       55.07240
H         79.71003      -27.65850       54.78680
H         79.67746      -27.24774       53.03338
H         77.66093      -29.03497       54.57241
H         78.97383      -29.59022       53.47818
H         77.87586      -28.39637       51.65734
H         76.89807      -29.60146       52.35339
H         76.58179      -27.97954       52.70166
N         78.17467      -21.54847       56.03477
C         78.83596      -20.53442       56.86689
C         77.83030      -19.71181       57.69815
O         76.65091      -19.74138       57.38321
C         79.85057      -19.66300       56.08306
C         79.39012      -18.77728       54.95061
O         78.13797      -18.70597       54.46887
O         80.24078      -18.11454       54.38005
H         77.15117      -21.55590       55.98723
H         79.41621      -21.12204       57.59890
H         80.62774      -20.32693       55.65453
H         80.37387      -19.00429       56.79439
N         78.15021      -19.00919       58.83260
C         79.45384      -18.90855       59.47346
C         80.00471      -20.25913       59.85976
O         79.23742      -21.17439       60.12557
H         77.37835      -18.52506       59.31831
H         79.35926      -18.29949       60.39807
H         80.16494      -18.36175       58.82606
N         81.34901      -20.46487       59.82648
C         81.97192      -21.77578       59.94122
C         82.85548      -21.85493       61.16930
O         83.56176      -20.90207       61.47056
C         82.78951      -22.01715       58.65879
C         83.41712      -23.38184       58.63098
O         82.64280      -24.48278       58.67781
O         84.62957      -23.49876       58.55488
H         81.96491      -19.65779       59.63884
H         81.20372      -22.57826       60.00429
H         83.57724      -21.23560       58.56768
H         82.11624      -21.93044       57.77795
N         82.92267      -23.01773       61.88207
C         83.79511      -23.18476       63.03101
C         83.28109      -22.49485       64.27361
O         84.00833      -22.47957       65.25723
H         82.38947      -23.83855       61.55817
H         84.81151      -22.81867       62.76749
H         83.88152      -24.26424       63.27986
N         82.03047      -21.95088       64.33318
C         81.49880      -21.28785       65.51917
C         81.13473      -19.85335       65.18220
O         81.24304      -19.46776       64.02385
C         80.31079      -22.09947       66.10084
C         79.10710      -22.20926       65.15282
O         80.76773      -23.39007       66.41934
H         81.41336      -22.01298       63.51086
H         82.27562      -21.24155       66.31399
H         79.97515      -21.58887       67.03308
H         80.15413      -23.75900       67.10721
H         78.71036      -21.20578       64.90128
H         79.37484      -22.73766       64.21553
H         78.29708      -22.78631       65.64857
N         80.72160      -18.99184       66.15445
C         80.38041      -17.59851       65.88145
C         81.34848      -16.68052       66.60906
O         81.91964      -15.81092       65.96706
C         78.90559      -17.26550       66.25614
C         77.93846      -18.36188       65.73904
C         78.54224      -15.88219       65.66492
C         76.46548      -18.09302       66.05582
H         80.65169      -19.33814       67.12315
H         80.46969      -17.39615       64.78985
H         78.80668      -17.22887       67.36378
H         78.20060      -19.31688       66.24159
H         78.05165      -18.49692       64.64148
H         78.59403      -15.91435       64.55316
H         77.52388      -15.56221       65.95904
H         79.23832      -15.09598       66.02249
H         75.85590      -18.96516       65.73879
H         76.32375      -17.93652       67.14614
H         76.09048      -17.20891       65.50134
N         81.60498      -16.83615       67.94466
C         82.49145      -15.94898       68.69450
C         81.80720      -15.47110       69.96392
O         80.84707      -16.08004       70.41439
C         83.82178      -16.66310       69.04597
C         84.58226      -17.11426       67.79169
O         84.65308      -15.83651       69.82489
H         81.17703      -17.62593       68.44830
H         82.73124      -15.05375       68.07910
H         83.58959      -17.56813       69.64879
H         84.88681      -15.03986       69.27932
H         83.97535      -17.82737       67.19646
H         84.83402      -16.23755       67.15630
H         85.52567      -17.61972       68.08756
N         82.24991      -14.33648       70.56971
C         81.65553      -13.77259       71.77169
C         80.78036      -12.61569       71.35163
O         79.58405      -12.64969       71.60839
C         82.77591      -13.38456       72.78076
C         82.22051      -12.71387       74.04166
O         83.71158      -12.52411       72.18055
H         82.99741      -13.80089       70.10447
H         80.99429      -14.51608       72.27193
H         83.28819      -14.33190       73.07070
H         84.55694      -12.60056       72.69561
H         83.05357      -12.48992       74.74246
H         81.72083      -11.75439       73.78635
H         81.49672      -13.38145       74.55208
N         81.31422      -11.56523       70.67992
C         80.54604      -10.42917       70.19723
C         80.81740      -10.22628       68.71676
O         81.70799      -10.86949       68.17413
C         80.86315       -9.19820       71.08038
C         82.36636       -8.86330       71.17782
C         82.65850       -7.88092       72.31860
C         84.17465       -7.69416       72.49223
N         84.47594       -6.87644       73.66595
H         82.32442      -11.57388       70.48856
H         79.45715      -10.63302       70.30414
H         80.51077       -9.46392       72.10237
H         80.28781       -8.30690       70.74880
H         82.74044       -8.48019       70.20400
H         82.93285       -9.77611       71.44077
H         82.25671       -8.31308       73.26261
H         82.16211       -6.90429       72.13389
H         84.60026       -7.21993       71.58080
H         84.65821       -8.68896       72.62580
H         85.51328       -6.77820       73.75523
H         84.04728       -5.92847       73.56786
H         84.11142       -7.34375       74.52861
N         80.05557       -9.37191       67.98084
C         80.28043       -9.16113       66.55299
C         80.18918      -10.47107       65.76136
O         81.18373      -10.80678       65.13367
C         79.35940       -8.06402       65.97653
C         79.64879       -6.68764       66.60506
C         78.80181       -5.58442       66.02831
O         77.97434       -5.80566       65.15725
O         78.96160       -4.32754       66.48325
H         79.29213       -8.86590       68.45531
H         81.31965       -8.77971       66.42233
H         78.29425       -8.30786       66.13461
H         79.54965       -7.98838       64.88261
H         80.71589       -6.42805       66.43483
H         79.46467       -6.72116       67.69873
N         79.10421      -11.30136       65.72787
C         77.85864      -11.09094       66.43043
H         77.18548      -11.95742       66.25242
H         78.03444      -11.01199       67.52189
H         77.33345      -10.20012       66.04488
H         79.18077      -12.16952       65.17355
Ca        76.04359      -19.38386       54.79063
O         73.72530      -21.15189       56.78690
H         72.95105      -21.64958       57.15172
H         74.47820      -21.79208       56.84359

Ca 1.0



