%chk=apoCaM-CA-Ng.loop3.water5.frame11.chk
%nprocshared=20
%mem=10GB
%nosave
#b3lyp/svp scf=(tight,noincore,xqc) Test 
#IOP(5/87=12) Density=Current Pop=(MK,readradii) iop(6/33=2) iop(6/42=6)

apoCaM-CA-Ng.loop3.water5.frame11 

   0  1 
C         89.15657       35.28298       82.23832
C         90.63908       35.27038       82.45853
O         91.29753       34.39719       81.91570
H         88.67054       36.11579       82.78762
H         88.93975       35.39089       81.15534
H         88.72721       34.32448       82.60075
N         91.23757       36.21334       83.24733
C         92.66508       36.24921       83.56394
C         93.09408       35.09467       84.47389
O         94.28234       34.98595       84.73695
C         93.54744       36.30281       82.28657
C         93.18918       37.44204       81.37095
O         92.09354       37.48565       80.83463
O         94.09430       38.40318       81.10646
H         90.65030       36.95890       83.65144
H         92.87044       37.18245       84.13530
H         93.49112       35.35556       81.71318
H         94.60781       36.42725       82.59803
N         92.19301       34.21413       85.01244
C         92.58035       33.06227       85.82844
C         92.16986       31.75111       85.16710
O         92.40945       30.70056       85.75092
C         91.97331       33.17824       87.24710
C         90.44334       32.98868       87.31276
C         89.94788       33.11437       88.76358
C         88.44869       32.80708       88.93068
N         88.14545       31.38784       88.72228
H         91.18895       34.34783       84.84005
H         93.68407       33.03547       85.95173
H         92.25947       34.16177       87.67928
H         92.43104       32.38519       87.87988
H         90.20336       31.97966       86.92317
H         89.92192       33.74397       86.68716
H         90.13361       34.15938       89.09491
H         90.52038       32.43396       89.43130
H         87.84527       33.43633       88.24008
H         88.16072       33.07076       89.97261
H         87.12933       31.22605       88.90790
H         88.34811       31.09418       87.74157
H         88.69964       30.80225       89.38952
N         91.52697       31.72988       83.96543
C         91.02167       30.52277       83.34001
C         92.15262       29.55545       83.04815
O         93.10366       29.93680       82.38300
C         90.26202       30.87703       82.03867
C         89.48200       29.70989       81.50269
O         89.46752       28.54147       82.17457
O         88.80836       29.84181       80.49460
H         91.34314       32.61128       83.47909
H         90.28633       30.07086       84.04094
H         90.97021       31.25986       81.27023
H         89.52071       31.67825       82.25560
N         92.10466       28.27848       83.52125
C         93.14749       27.28612       83.30839
C         93.33073       26.81964       81.87157
O         94.17773       25.96139       81.66945
H         91.29946       27.99692       84.09956
H         92.89263       26.38431       83.90456
H         94.11034       27.68557       83.69289
N         92.61469       27.32446       80.82485
C         92.81205       26.91402       79.43630
C         93.46401       28.04919       78.64220
O         93.53818       27.96039       77.42434
C         91.45754       26.47945       78.82685
C         90.82465       25.34169       79.60173
N         90.58334       24.14302       79.02065
O         90.51735       25.50818       80.77120
H         91.91686       28.06165       80.98723
H         93.49796       26.04165       79.35774
H         91.62372       26.15882       77.77489
H         90.75219       27.33837       78.81426
H         90.82955       23.96687       78.03663
H         90.14710       23.38193       79.56381
N         94.03178       29.11565       79.28431
C         94.69625       30.22587       78.62761
C         93.71071       31.06204       77.86459
O         92.73459       31.49399       78.45989
H         94.04135       29.14378       80.30857
H         95.52400       29.85317       77.98650
H         95.13974       30.88187       79.40791
N         93.92375       31.35240       76.54841
C         93.01959       32.10362       75.67874
C         91.85271       31.26859       75.18741
O         91.45003       31.51409       74.06132
C         92.53859       33.45705       76.24373
C         93.66112       34.41358       76.55630
C         94.46407       34.93093       75.52451
C         93.89113       34.82876       77.87810
C         95.47447       35.85403       75.81155
C         94.90621       35.74613       78.16352
C         95.69840       36.26606       77.12949
O         96.67043       37.16355       77.38914
H         94.80516       31.02675       76.12188
H         93.60091       32.32439       74.75329
H         91.91082       33.28139       77.13915
H         91.87637       33.95337       75.50042
H         94.29707       34.63551       74.49597
H         93.28389       34.44553       78.68855
H         96.07846       36.25585       75.00724
H         95.07058       36.05702       79.18731
H         96.84923       37.48301       78.28513
N         91.24391       30.30627       75.95329
C         90.18779       29.39344       75.51486
C         90.81082       28.24347       74.72824
O         90.71504       27.10841       75.17450
C         88.99122       30.11636       74.81177
C         88.44957       31.25357       75.71846
C         87.88258       29.10902       74.46805
C         87.34721       32.09058       75.06546
H         91.54189       30.17182       76.92258
H         89.76705       28.92228       76.43507
H         89.32504       30.55639       73.85131
H         89.27572       31.95708       75.95328
H         88.07405       30.83344       76.67699
H         88.27696       28.35311       73.76965
H         87.49960       28.61309       75.38557
H         87.03921       29.59019       73.93602
H         87.71131       32.52652       74.11068
H         86.43516       31.49110       74.87487
H         87.06304       32.91944       75.74707
N         91.50662       28.46104       73.58010
C         92.15915       27.40957       72.81122
C         91.12634       26.47265       72.22687
O         91.30711       25.26473       72.28231
C         93.00200       28.03415       71.68161
O         93.93396       28.95184       72.19614
H         91.59049       29.41597       73.22586
H         92.86692       26.84617       73.46107
H         92.33999       28.57778       70.97440
H         93.53729       27.24482       71.10877
H         94.49514       28.46749       72.85681
N         89.97543       26.98566       71.70556
C         88.88233       26.20545       71.14812
C         88.42025       25.09691       72.08672
O         88.19665       23.98437       71.62734
C         89.26833       25.68242       69.75799
H         89.83405       28.00691       71.74364
H         88.02531       26.90118       71.00712
H         90.12560       24.97962       69.82526
H         88.40785       25.16226       69.28618
H         89.55801       26.53370       69.10514
N         88.29622       25.31829       73.42849
C         87.85851       24.28987       74.36263
C         86.76119       24.79217       75.27875
O         86.52943       25.99002       75.36985
C         89.04670       23.83325       75.21306
H         88.57798       26.22725       73.81147
H         87.47083       23.40949       73.80573
H         88.74164       23.02927       75.91635
H         89.84968       23.43674       74.55648
H         89.45439       24.68413       75.80075
N         86.04630       23.88643       76.00452
C         85.04616       24.20700       77.01389
C         83.99851       25.17089       76.46723
O         83.78481       26.23234       77.04078
C         85.76283       24.75413       78.26176
C         84.92094       24.66284       79.54515
C         85.64845       25.38871       80.63287
O         86.93479       25.09342       80.88877
O         85.12505       26.33911       81.19178
H         86.23155       22.88446       75.84353
H         84.56164       23.24765       77.30167
H         86.07926       25.79842       78.05685
H         86.68358       24.15519       78.44584
H         84.78455       23.59362       79.81935
H         83.92065       25.12434       79.40726
N         83.34071       24.88592       75.31335
C         82.40264       25.81832       74.72504
H         81.55599       25.99909       75.42034
H         82.91382       26.78329       74.51161
H         82.00952       25.41137       73.77051
H         83.53668       24.00200       74.82076
Ca        88.12893       26.82412       81.65717
O         87.58250       27.69637       78.87808
H         87.93997       28.47439       78.38293
H         88.16841       26.94281       78.61460
O         86.54633       25.86682       84.34697
H         86.90101       25.62540       85.23960
H         85.74271       25.30015       84.23569
O         89.82734       25.22313       83.66975
H         90.66751       25.33394       84.18055
H         89.88767       24.31242       83.28607
O         86.22532       28.97650       82.66277
H         86.52021       29.78343       83.15462
H         85.71295       29.32746       81.89178
O         88.55157       27.90767       84.77583
H         88.28888       28.85632       84.87835
H         89.18178       27.73861       85.51968

Ca 1.0



