%chk=apoCaM-CA-Ng.loop2.water4.frame354.chk
%nprocshared=20
%mem=10GB
%nosave
#b3lyp/svp scf=(tight,noincore,xqc) Test 
#IOP(5/87=12) Density=Current Pop=(MK,readradii) iop(6/33=2) iop(6/42=6)

apoCaM-CA-Ng.loop2.water4.frame354 

   -2  1 
C         70.67963       99.51749       35.51742
C         70.17692      100.92590       35.42257
O         69.13990      101.22786       35.99625
H         71.68426       99.51181       35.98942
H         69.99349       98.89517       36.13112
H         70.74846       99.07751       34.50288
N         70.88137      101.85960       34.72308
C         70.44672      103.24675       34.62610
C         69.14316      103.32902       33.85145
O         69.13814      103.06244       32.65765
C         71.53867      104.10662       33.94893
C         71.21694      105.57905       33.88135
O         70.06955      106.07312       34.38737
O         72.01623      106.34148       33.36264
H         71.76934      101.57450       34.28082
H         70.31139      103.63023       35.66280
H         71.71365      103.73166       32.91639
H         72.48459      103.99379       34.52201
N         67.99175      103.67757       34.48791
C         66.71053      103.83052       33.81685
C         65.75906      102.73451       34.24347
O         65.64657      102.45492       35.42991
C         66.12004      105.20213       34.14873
H         68.01819      103.83386       35.50768
H         66.82683      103.79328       32.71095
H         65.95347      105.30803       35.24207
H         66.80907      106.00445       33.80927
H         65.14737      105.33237       33.62583
N         64.99756      102.10157       33.30428
C         64.03173      101.04120       33.59676
C         62.88748      101.47272       34.51830
O         62.04718      100.63095       34.80491
C         63.42755      100.50123       32.27877
C         64.47997       99.92437       31.37523
O         64.66230      100.39079       30.26212
O         65.21552       98.87631       31.78662
H         65.11873      102.38868       32.32052
H         64.56703      100.20544       34.09970
H         62.88691      101.32273       31.75772
H         62.70034       99.68905       32.49556
N         62.77873      102.73053       35.04178
C         61.70733      103.13835       35.93638
C         61.64427      102.40346       37.26920
O         60.74065      102.72994       38.02689
H         63.44785      103.46461       34.78394
H         60.73694      103.00300       35.41133
H         61.82415      104.22185       36.15814
N         62.50027      101.39536       37.62793
C         62.33552      100.62009       38.85729
C         63.60166      100.57648       39.69710
O         64.64071      101.07888       39.28871
C         61.87302       99.19414       38.48926
C         60.48175       99.22490       37.90194
N         60.24223       98.80486       36.63916
O         59.55449       99.63530       38.58500
H         63.25557      101.10533       36.99282
H         61.55853      101.07716       39.50907
H         61.82966       98.54416       39.38819
H         62.60182       98.74281       37.77965
H         61.00451       98.45504       36.04224
H         59.28566       98.83589       36.25513
N         63.54166      100.00676       40.93466
C         64.63844       99.93647       41.88597
C         64.85026       98.52040       42.37578
O         64.28630       97.59014       41.81174
H         62.63312       99.63826       41.25796
H         64.33650      100.54665       42.76378
H         65.58796      100.35312       41.48596
N         65.60420       98.29198       43.49127
C         65.74540       96.95864       44.07794
C         66.58614       96.02253       43.21256
O         66.52969       94.82292       43.43386
C         66.26114       97.00496       45.54332
C         67.67390       97.58644       45.70443
O         65.34996       97.69541       46.36420
H         66.00484       99.11045       43.97269
H         64.72115       96.52263       44.13427
H         66.29907       95.95951       45.92061
H         65.39895       98.66118       46.14272
H         67.72661       98.64116       45.36634
H         67.97121       97.54953       46.77369
H         68.40231       96.99122       45.12865
N         67.37749       96.50067       42.20755
C         68.10320       95.65509       41.25804
C         67.55254       95.94796       39.86754
O         66.76831       96.87439       39.71573
C         69.64182       95.92531       41.40434
C         70.17542       95.48291       42.79409
C         70.52554       95.31722       40.29897
C         70.10842       93.97432       43.07272
H         67.45581       97.51898       42.07566
H         67.88892       94.58278       41.44220
H         69.79148       97.02589       41.33095
H         69.61264       96.00654       43.58546
H         71.23745       95.79888       42.88693
H         71.59280       95.55978       40.48914
H         70.41730       94.21522       40.24245
H         70.28471       95.76396       39.31353
H         69.06538       93.60140       43.06100
H         70.71040       93.40062       42.33907
H         70.52617       93.76965       44.08065
N         67.88118       95.15455       38.80656
C         67.35606       95.36980       37.46711
C         66.58507       94.12475       37.04996
O         66.77901       93.61740       35.95855
C         68.55224       95.70989       36.55247
C         68.19276       96.10831       35.15174
O         66.90918       96.17970       34.74908
O         69.08603       96.38774       34.36911
H         68.50490       94.34808       38.94811
H         66.64941       96.22734       37.46227
H         69.24256       94.83915       36.52034
H         69.10324       96.56528       37.00170
N         65.73124       93.54081       37.93779
C         65.00913       92.28951       37.70246
C         65.97161       91.17384       37.29058
O         66.93624       90.95230       38.01068
C         64.31184       91.84671       39.01284
C         63.28510       92.83616       39.51020
C         63.51304       93.56161       40.69446
C         62.08411       93.02999       38.80794
C         62.55874       94.46976       41.16132
C         61.12602       93.93060       39.28621
C         61.36438       94.65166       40.45991
H         65.63699       93.98759       38.86200
H         64.24002       92.45182       36.92160
H         65.10209       91.71110       39.78548
H         63.81193       90.86223       38.87857
H         64.43239       93.43220       41.25252
H         61.88395       92.47314       37.90104
H         62.74446       95.02962       42.06913
H         60.19685       94.06784       38.74852
H         60.62302       95.34948       40.82733
N         65.76984       90.39309       36.17915
C         66.61539       89.25736       35.83566
C         67.87450       89.65515       35.07482
O         68.69666       88.78445       34.82560
C         65.69034       88.39765       34.96970
C         64.91844       89.45762       34.20494
C         64.61663       90.47674       35.30348
H         66.90547       88.68104       36.74230
H         66.19770       87.62565       34.35201
H         64.96072       87.88619       35.63878
H         65.62219       89.91981       33.47583
H         64.02402       89.10078       33.65197
H         64.47660       91.48228       34.85164
H         63.71690       90.18347       35.88855
N         68.08593       90.93139       34.64741
C         69.29284       91.34765       33.94342
C         70.48636       91.20925       34.86341
O         71.42023       90.49638       34.52214
C         69.16857       92.80466       33.44319
C         68.07384       92.93975       32.36977
C         67.94271       94.35307       31.88679
O         68.89141       94.92069       31.36875
O         66.76319       94.99275       32.00115
H         67.35543       91.62976       34.81308
H         69.44443       90.70477       33.04629
H         70.13667       93.11478       32.99021
H         68.95269       93.48115       34.29642
H         67.09238       92.61538       32.77453
H         68.32517       92.29180       31.50264
N         70.51419       91.85126       36.06336
C         71.63059       91.72864       36.97406
H         72.55552       92.11235       36.49379
H         71.43408       92.31755       37.89510
H         71.77364       90.66361       37.25661
H         69.71262       92.43362       36.34805
Ca        67.79738       97.74207       32.17855
O         68.32374      100.50387       31.20131
H         67.48590      100.99684       31.01493
H         68.38591      100.48679       32.18946
O         67.27214       99.21884       34.68925
H         67.17342      100.17198       34.44306
H         67.14699       99.19689       35.67087
O         67.87154       97.28590       29.27200
H         68.84488       97.43992       29.17459
H         67.45168       97.94656       28.66608
O         70.68449       98.17110       32.00232
H         71.31313       97.45119       31.74538
H         71.01861       98.97782       31.53603

Ca 1.0



