%chk=apoCaM-CA-Ng.loop1.water4.frame365.chk
%nprocshared=20
%mem=10GB
%nosave
#b3lyp/svp scf=(tight,noincore,xqc) Test 
#IOP(5/87=12) Density=Current Pop=(MK,readradii) iop(6/33=2) iop(6/42=6)

apoCaM-CA-Ng.loop1.water4.frame365 

   0  1 
C         28.37284       94.39639       36.92577
C         28.60920       93.91135       35.52575
O         29.37842       94.52048       34.79968
H         27.29529       94.62016       37.06846
H         28.67565       93.60516       37.64543
H         28.96575       95.31129       37.13576
N         27.98595       92.78241       35.09568
C         28.20211       92.16759       33.78733
C         27.53052       92.92312       32.62964
O         27.52848       92.37731       31.54168
C         27.67703       90.70487       33.80367
C         28.41864       89.82662       34.78475
O         29.05450       88.86531       34.38133
O         28.37333       90.07442       36.10765
H         27.37489       92.29930       35.77213
H         29.29300       92.08515       33.58599
H         27.82311       90.25756       32.79500
H         26.58966       90.68431       34.03183
N         26.90509       94.13046       32.74886
C         26.11294       94.69988       31.65084
C         26.58052       96.08125       31.21950
O         26.81098       96.89527       32.10271
C         24.65301       94.80915       32.11680
C         24.06297       93.43737       32.46560
C         22.59418       93.57798       32.86494
C         21.98948       92.21763       33.22412
N         20.58221       92.36060       33.59245
H         26.90379       94.62455       33.65152
H         26.12365       94.03605       30.77644
H         24.04527       95.25752       31.30396
H         24.58949       95.47935       33.00285
H         24.63089       92.98588       33.30861
H         24.14131       92.76582       31.58158
H         22.02669       94.01903       32.01583
H         22.51440       94.25777       33.74163
H         22.55093       91.77505       34.07726
H         22.07381       91.53055       32.35259
H         20.49096       92.98921       34.42358
H         20.04078       92.75702       32.78994
H         20.19376       91.42051       33.83275
N         26.62969       96.51243       29.91084
C         26.35896       95.76191       28.67412
C         25.02526       95.02511       28.69275
O         25.02440       93.80183       28.67621
C         27.54820       94.85718       28.28268
C         28.79678       95.67900       28.12546
O         28.79363       96.77792       27.34615
O         29.80761       95.37788       28.73137
H         26.85939       97.50904       29.76941
H         26.29778       96.48805       27.83203
H         27.32401       94.39867       27.29488
H         27.71312       94.04188       29.01912
N         23.82406       95.66470       28.70460
C         23.66131       97.10055       28.51717
C         22.19434       97.51628       28.57452
O         21.37439       96.73642       29.03888
H         22.98706       95.06507       28.76650
H         24.05178       97.32224       27.50008
H         24.23617       97.68206       29.26749
N         21.73559       98.70029       28.07211
C         22.55459       99.70204       27.40438
C         22.36497       99.58867       25.90364
O         21.24683       99.67824       25.41503
C         22.26587      101.13788       27.89764
C         20.85788      101.62338       27.65675
O         19.81654      101.05865       28.29597
O         20.65768      102.56335       26.90384
H         20.71507       98.83740       28.07460
H         23.62660       99.53195       27.63560
H         22.96767      101.81391       27.35688
H         22.49261      101.21931       28.98114
N         23.45477       99.39110       25.11652
C         23.42865       99.27353       23.66977
C         24.03487       97.95912       23.24250
O         23.40922       97.23825       22.47825
H         24.37483       99.35409       25.57591
H         24.04161      100.09659       23.24736
H         22.39875       99.37000       23.25794
N         25.25910       97.57860       23.71805
C         25.92228       96.33167       23.35010
C         24.99565       95.15787       23.61152
O         24.56844       94.95098       24.73983
C         27.26088       96.15440       24.11620
C         28.27393       97.27246       23.81417
O         27.83959       94.90803       23.81688
H         25.73166       98.20095       24.38416
H         26.15469       96.37689       22.26302
H         27.04466       96.17006       25.20694
H         28.00284       94.87916       22.83763
H         29.20546       97.09586       24.38877
H         28.51986       97.29034       22.73128
H         27.89421       98.27240       24.10359
N         24.59146       94.39074       22.56041
C         23.55375       93.37020       22.65141
C         23.95917       92.14155       23.47605
O         23.10111       91.30213       23.69100
C         23.04904       92.96853       21.21894
C         24.13948       92.21746       20.40860
C         22.51518       94.21005       20.46747
C         23.73584       91.84532       18.98165
H         24.97329       94.63036       21.63528
H         22.68282       93.83653       23.16655
H         22.18257       92.28069       21.33846
H         24.34762       91.27154       20.93717
H         25.07722       92.80753       20.34809
H         22.03300       93.91782       19.51258
H         21.74063       94.72240       21.07549
H         23.31721       94.93848       20.23047
H         23.60178       92.75384       18.35874
H         24.54772       91.24476       18.51810
H         22.80191       91.24635       18.98107
N         25.23478       91.95333       23.94726
C         25.64348       90.76139       24.69736
C         26.24940       91.13725       26.03810
O         27.13667       91.97430       26.08203
C         26.71061       89.95229       23.92278
C         26.21125       89.49564       22.55570
O         27.04747       88.81468       24.67899
H         25.96122       92.64887       23.73819
H         24.78444       90.07467       24.86078
H         27.61230       90.59384       23.77882
H         27.95733       88.53548       24.39779
H         26.02863       90.37654       21.91926
H         26.98859       88.87928       22.05790
H         25.28304       88.89251       22.65689
N         25.89491       90.44215       27.16135
C         26.57220       90.60447       28.45096
C         28.06554       90.27153       28.34734
O         28.52559       89.86645       27.28620
C         25.89646       89.71067       29.53654
C         26.08491       88.20291       29.28025
O         24.52732       90.01738       29.60142
H         25.14539       89.74188       27.07709
H         26.46687       91.66278       28.76944
H         26.35860       89.94750       30.52104
H         24.18269       89.62907       30.44847
H         27.16277       87.93637       29.27425
H         25.60326       87.61979       30.09334
H         25.63666       87.89149       28.31528
N         28.87242       90.38106       29.44049
C         30.27412       89.98427       29.47418
C         31.20841       91.13923       29.84639
O         32.35807       91.11297       29.43307
C         30.38744       88.82523       30.48599
C         31.73302       88.08715       30.51800
C         32.05048       87.42011       29.17111
C         33.27014       86.50099       29.26867
N         33.56424       85.90002       27.96781
H         28.44910       90.67866       30.32076
H         30.56607       89.62319       28.46742
H         29.60847       88.06945       30.23877
H         30.15842       89.21243       31.50443
H         31.64235       87.29542       31.29418
H         32.55608       88.77054       30.81754
H         32.24909       88.19802       28.40495
H         31.17937       86.80796       28.84805
H         33.06133       85.69445       30.00715
H         34.15341       87.08019       29.61640
H         34.37787       85.25133       28.06452
H         32.73783       85.35828       27.62369
H         33.80553       86.64711       27.27643
N         30.78848       92.18589       30.61786
C         31.63701       93.30772       31.00904
C         32.73144       92.84165       31.94697
O         32.42405       92.27549       32.98808
C         30.78410       94.39036       31.71771
C         31.57778       95.62961       32.17540
C         32.26231       96.34462       31.04484
O         33.60284       96.47074       31.04198
O         31.61120       96.83327       30.13729
H         29.82037       92.19944       30.94175
H         32.06440       93.77042       30.09286
H         30.31067       93.94270       32.60892
H         29.96209       94.71262       31.04959
H         32.33720       95.32266       32.92515
H         30.88095       96.33840       32.67279
N         34.03708       93.09529       31.66413
C         35.10010       92.73410       32.57597
H         36.07892       93.05950       32.16490
H         34.94479       93.23967       33.55419
H         35.11726       91.63453       32.72653
H         34.28440       93.58711       30.79242
Ca        30.51505       98.23476       27.46336
O         32.18286      100.10064       29.70892
H         32.19135       99.53343       30.52034
H         33.13203      100.14968       29.43156
O         31.98349       96.54511       25.56049
H         32.03975       97.33756       24.96912
H         31.24187       96.00632       25.18728
O         31.69920      100.35931       25.74243
H         31.56550      100.19658       24.77506
H         32.67364      100.50441       25.83926
O         33.73958       98.05404       27.54185
H         34.22458       98.82763       27.15894
H         34.24902       97.81952       28.35762

Ca 1.0



