%chk=apoCaM-CA-Ng.loop1.water2.frame914.chk
%nprocshared=20
%mem=10GB
%nosave
#b3lyp/svp scf=(tight,noincore,xqc) Test 
#IOP(5/87=12) Density=Current Pop=(MK,readradii) iop(6/33=2) iop(6/42=6)

apoCaM-CA-Ng.loop1.water2.frame914 

   0  1 
C          2.21411       34.85263       49.86107
C          3.46179       34.52138       50.63054
O          4.16562       35.43231       51.04090
H          1.51659       35.41442       50.51742
H          2.46452       35.47276       48.97621
H          1.69563       33.93381       49.51156
N          3.77017       33.22444       50.90128
C          4.91602       32.79889       51.69528
C          5.77146       31.78231       50.93028
O          5.24231       30.98754       50.17624
C          4.44726       32.33638       53.09713
C          3.06655       31.70007       53.20772
O          2.66313       30.60068       52.53233
O          2.26044       32.21779       53.96597
H          3.12133       32.49048       50.57746
H          5.59647       33.65555       51.90517
H          4.36084       33.26861       53.70447
H          5.24305       31.75424       53.60066
N          7.13340       31.85169       50.97803
C          8.02265       31.04974       50.12859
C          8.01059       29.55019       50.39362
O          8.19170       29.12013       51.52429
C          9.47053       31.57236       50.20186
C         10.16691       31.37989       51.56060
C         11.43555       32.23469       51.62043
C         12.13864       32.10496       52.97585
N         13.20527       33.09803       53.09960
H          7.55246       32.58399       51.57122
H          7.71756       31.23067       49.07459
H          9.42207       32.65385       49.95284
H         10.08722       31.07340       49.41953
H         10.41002       30.30580       51.72062
H          9.49797       31.71536       52.37956
H         11.12875       33.29418       51.48140
H         12.13932       31.95763       50.80411
H         12.55584       31.07855       53.08135
H         11.40616       32.27254       53.79638
H         13.89799       32.99373       52.32362
H         12.79227       34.05980       53.07411
H         13.68985       32.97001       54.01671
N          7.89295       28.69957       49.33360
C          8.05969       27.24642       49.39275
C          9.03932       26.82952       48.29316
O          8.97722       27.42510       47.22565
C          6.70718       26.56504       49.12363
C          5.66655       27.08419       50.07141
O          4.66273       27.84593       49.60124
O          5.78357       26.91456       51.27450
H          7.70831       29.11364       48.40797
H          8.40343       26.94189       50.40317
H          6.79963       25.46174       49.23176
H          6.39124       26.79486       48.08364
N          9.92984       25.80461       48.38136
C         10.11692       24.89662       49.49420
C         11.54748       24.91654       49.94933
O         12.31368       25.76756       49.51724
H         10.51182       25.61928       47.54942
H          9.89752       23.87460       49.11696
H          9.45176       25.09082       50.35219
N         11.98855       23.97870       50.82877
C         13.39014       23.88225       51.20233
C         14.17638       23.40922       49.98027
O         13.90566       22.32076       49.48965
C         13.54887       22.92329       52.40463
C         14.90877       22.97111       53.05227
O         15.14779       22.20777       54.13537
O         15.78305       23.71894       52.64248
H         11.30903       23.30650       51.21868
H         13.72052       24.88850       51.54445
H         13.31030       21.88127       52.09882
H         12.82003       23.22413       53.18955
N         15.14057       24.18972       49.41424
C         15.87246       23.80790       48.20990
C         15.06973       23.92429       46.91405
O         15.62819       23.62407       45.86922
H         15.38714       25.08179       49.86780
H         16.27841       22.78000       48.33354
H         16.73785       24.49547       48.09422
N         13.79226       24.40283       46.88912
C         12.99478       24.61818       45.68064
C         11.71573       23.79803       45.73594
O         11.43998       23.14495       46.73453
C         12.72693       26.14570       45.52542
C         13.98224       26.83591       44.98559
O         11.67511       26.40953       44.63358
H         13.35436       24.66640       47.77162
H         13.53302       24.26420       44.77688
H         12.45250       26.54952       46.52799
H         11.36640       27.33702       44.81035
H         14.86727       26.62277       45.61724
H         14.18149       26.47071       43.95207
H         13.82185       27.93264       44.93675
N         10.90367       23.75749       44.63957
C          9.72755       22.90977       44.54682
C         10.24489       21.49632       44.39866
O          9.93669       20.65143       45.22721
C          8.80559       23.32438       43.35547
C          8.54035       24.85707       43.28447
C          7.47094       22.55569       43.41415
C          8.01427       25.49328       44.57318
H         11.18602       24.28087       43.80149
H          9.12221       23.02738       45.47565
H          9.30060       23.06058       42.39587
H          7.82867       25.06358       42.45604
H          9.47889       25.38552       43.01974
H          7.64210       21.45971       43.38913
H          6.90709       22.79717       44.34008
H          6.83763       22.82213       42.54058
H          8.75418       25.38076       45.39252
H          7.86448       26.58098       44.40408
H          7.04814       25.04974       44.88271
N         11.12920       21.21135       43.39208
C         11.86517       19.95927       43.30146
C         11.49306       19.19230       42.05642
O         11.28940       19.77809       41.00129
C         13.39403       20.19258       43.33268
C         13.80496       21.04196       44.53775
O         14.03486       18.94302       43.40037
H         11.35740       21.94477       42.70257
H         11.62875       19.32410       44.18292
H         13.70691       20.72248       42.40213
H         15.00777       19.10442       43.28966
H         14.90991       21.14031       44.58212
H         13.38288       22.05457       44.42413
H         13.43905       20.59460       45.48534
N         11.44204       17.83681       42.13128
C         11.06599       16.95257       41.03828
C          9.85469       16.11130       41.40994
O          9.34556       15.41619       40.54047
C         12.25852       16.03620       40.66667
C         12.71391       15.13416       41.82682
O         13.34476       16.82456       40.25737
H         11.69369       17.41087       43.03321
H         10.79126       17.55484       40.14247
H         11.95860       15.35311       39.83574
H         13.21899       17.00474       39.28891
H         13.58897       14.52983       41.51371
H         13.02527       15.72281       42.71358
H         11.90181       14.43898       42.12424
N          9.33224       16.11888       42.67365
C          8.19598       15.30018       43.05401
C          7.57227       15.75412       44.36520
O          8.18180       16.48037       45.13865
C          8.62803       13.81731       43.21838
C          9.66603       13.65823       44.35770
C          9.99464       12.19494       44.65235
C         10.92701       12.08777       45.87062
N         11.15141       10.69045       46.23467
H          9.74055       16.72236       43.39368
H          7.41625       15.41889       42.26833
H          9.04966       13.41937       42.27121
H          7.72935       13.21049       43.46762
H          9.25024       14.08271       45.29561
H         10.59605       14.21386       44.11151
H         10.46780       11.72206       43.76486
H          9.04762       11.66230       44.88639
H         10.46582       12.60980       46.73993
H         11.90014       12.58045       45.64822
H         11.60089       10.17861       45.44194
H         11.77794       10.65008       47.07088
H         10.23996       10.23766       46.47800
N          6.33579       15.29261       44.67678
C          5.67901       15.44238       45.96836
C          5.79817       16.83271       46.59764
O          6.22375       16.87888       47.74383
C          4.23037       14.92264       45.86195
C          3.54129       14.81032       47.22354
C          2.23106       14.09385       47.08046
O          2.14141       12.79288       47.41920
O          1.26050       14.66456       46.61000
H          5.84802       14.74168       43.95216
H          6.20488       14.74901       46.66485
H          4.28840       13.89050       45.44165
H          3.62997       15.54368       45.16431
H          3.38809       15.80639       47.69251
H          4.19482       14.20634       47.88812
N          5.51134       18.01456       45.98029
C          5.07949       18.18156       44.61217
H          4.13467       18.76126       44.59611
H          5.85837       18.75723       44.06587
H          4.91586       17.22649       44.08660
H          5.65918       18.88292       46.51934
Ca         3.67842       29.21389       51.08732
O          5.20160       29.20049       53.34759
H          5.26060       28.61406       54.14021
H          6.10469       29.58941       53.24061
O          2.32128       28.12771       53.87720
H          2.11038       29.03732       54.20081
H          2.70430       27.68512       54.67338

Ca 1.0



