%chk=apoCaM-CA-Ng.loop1.water4.frame46.chk
%nprocshared=20
%mem=10GB
%nosave
#b3lyp/svp scf=(tight,noincore,xqc) Test 
#IOP(5/87=12) Density=Current Pop=(MK,readradii) iop(6/33=2) iop(6/42=6)

apoCaM-CA-Ng.loop1.water4.frame46 

   0  1 
C         67.91369       57.43959       49.99116
C         68.64433       57.19988       51.28274
O         69.05316       58.16021       51.91959
H         67.00615       58.04970       50.18145
H         68.57509       57.98006       49.28228
H         67.60004       56.48512       49.51660
N         68.83776       55.93066       51.73959
C         69.50957       55.61616       53.00045
C         71.01858       55.90769       53.01015
O         71.64105       55.62524       54.02310
C         69.22783       54.14413       53.39767
C         69.77751       53.09334       52.46641
O         70.41497       53.39291       51.46947
O         69.55435       51.79436       52.74203
H         68.42899       55.15738       51.19204
H         69.03719       56.22737       53.80033
H         68.12559       54.00673       53.45803
H         69.64022       53.95733       54.41293
N         71.67012       56.49078       51.95859
C         73.10180       56.79355       51.94683
C         73.30422       58.27959       52.18996
O         72.64967       59.05415       51.50571
C         73.70986       56.42887       50.57960
C         73.63326       54.92860       50.27588
C         74.26752       54.63642       48.90742
C         74.19484       53.15582       48.50297
N         74.98175       52.29423       49.38703
H         71.13572       56.78804       51.13310
H         73.64036       56.19741       52.69396
H         74.78148       56.72862       50.57695
H         73.19056       56.99860       49.77685
H         72.57120       54.60349       50.26292
H         74.17171       54.37836       51.07598
H         75.32996       54.96607       48.90296
H         73.72030       55.22320       48.13715
H         74.59738       53.06510       47.46959
H         73.13496       52.81839       48.48839
H         74.95164       51.31628       49.01857
H         75.97750       52.61393       49.40854
H         74.58577       52.28999       50.35317
N         74.19538       58.80977       53.08776
C         75.16279       58.11114       53.93717
C         76.13237       57.26302       53.11377
O         76.18970       56.05800       53.31640
C         74.52426       57.30791       55.09523
C         73.63008       58.10486       55.99620
O         73.34309       59.40181       55.76826
O         73.12384       57.54588       56.95546
H         74.23899       59.84096       53.13278
H         75.77574       58.88146       54.45683
H         75.35043       56.90216       55.71973
H         73.94386       56.44439       54.73858
N         76.98379       57.80534       52.19670
C         77.03195       59.22796       51.89689
C         78.23803       59.62381       51.06262
O         79.06429       58.77363       50.75979
H         77.64366       57.16254       51.73231
H         77.12533       59.77259       52.85286
H         76.09651       59.52549       51.37871
N         78.46155       60.91018       50.66404
C         77.54900       62.03542       50.86868
C         77.17349       62.24462       52.32638
O         75.98612       62.32544       52.61235
C         78.11135       63.33879       50.24489
C         79.36520       63.86739       50.89370
O         79.35926       65.08729       51.46443
O         80.39627       63.21448       50.88625
H         79.33144       61.08536       50.13754
H         76.61270       61.81967       50.30604
H         77.32517       64.12232       50.31617
H         78.31453       63.17005       49.16462
N         78.11926       62.29309       53.30585
C         77.80429       62.50256       54.71106
C         78.17245       61.30959       55.56765
O         78.57058       60.27399       55.05124
H         79.11084       62.16818       53.05304
H         76.72474       62.71204       54.87141
H         78.37458       63.39133       55.05568
N         78.08472       61.41826       56.92283
C         78.46888       60.35201       57.85128
C         77.43408       59.22497       57.89808
O         76.42457       59.30530       57.21510
C         78.76652       60.94103       59.26012
C         77.53628       61.52056       59.96699
O         79.74131       61.94796       59.15427
H         77.81654       62.33932       57.29917
H         79.43408       59.92198       57.50144
H         79.15767       60.13968       59.92638
H         80.60575       61.49647       58.96431
H         77.83705       61.90088       60.96671
H         77.09435       62.36521       59.40173
H         76.76351       60.73756       60.11197
N         77.64301       58.13234       58.69621
C         76.73667       56.98553       58.78086
C         76.21410       56.80103       60.20262
O         77.00817       56.61669       61.11260
C         77.43544       55.68221       58.25782
C         76.45384       54.48109       58.37124
C         78.78188       55.37491       58.95550
C         76.97033       53.17578       57.76609
H         78.49840       58.10695       59.26601
H         75.85900       57.14673       58.12002
H         77.66238       55.84809       57.18123
H         75.50923       54.74209       57.84658
H         76.21448       54.28728       59.43829
H         79.49945       56.20967       58.83232
H         78.65229       55.16057       60.03474
H         79.27712       54.49991       58.49086
H         77.86596       52.80439       58.30402
H         76.18612       52.39548       57.86123
H         77.20768       53.31553       56.69151
N         74.86559       56.77289       60.44217
C         74.28903       56.43441       61.74603
C         73.41407       55.17444       61.69020
O         72.99471       54.73870       62.75374
C         73.49508       57.62989       62.33251
C         72.25393       58.01532       61.51166
O         74.33560       58.74278       62.51214
H         74.22323       56.96558       59.66106
H         75.10627       56.20713       62.46520
H         73.13225       57.33329       63.34168
H         74.60720       59.06873       61.61514
H         71.72051       58.84868       62.01573
H         72.53384       58.34204       60.48988
H         71.55427       57.15672       61.43288
N         73.10175       54.53473       60.51822
C         72.30105       53.31036       60.39806
C         70.86052       53.49237       60.86812
O         70.63190       53.81952       62.02254
C         72.95891       52.10343       61.11095
C         74.36816       51.84717       60.57509
O         72.19448       50.94528       60.88136
H         73.46213       54.91111       59.63082
H         72.26878       53.04376       59.31730
H         73.04568       52.28346       62.20639
H         71.47019       50.92974       61.56036
H         75.02621       52.71676       60.77396
H         74.80523       50.95824       61.07634
H         74.33561       51.65574       59.48057
N         69.83169       53.22757       60.00941
C         68.41727       53.31585       60.37537
C         67.68221       54.36681       59.55284
O         66.50138       54.57927       59.79828
C         67.74889       51.92735       60.24120
C         67.67781       51.41080       58.79131
C         67.04629       50.01393       58.72570
C         66.85683       49.51001       57.28286
N         68.12101       49.38977       56.55278
H         70.06593       52.93163       59.05166
H         68.32265       53.62103       61.44019
H         66.71312       51.98654       60.64366
H         68.31543       51.20434       60.86876
H         68.69794       51.35525       58.36716
H         67.06757       52.11293       58.18272
H         66.04293       50.04688       59.20397
H         67.67780       49.29445       59.29197
H         66.17425       50.19505       56.73267
H         66.37178       48.50985       57.32933
H         67.93141       48.96334       55.61721
H         68.54803       50.32970       56.39282
H         68.78624       48.77583       57.07614
N         68.31415       55.08131       58.57908
C         67.66587       56.12922       57.80433
C         66.58676       55.53204       56.92224
O         66.89344       54.68281       56.09522
C         68.70184       56.87940       56.93246
C         69.88884       57.48904       57.71497
C         69.51839       58.56435       58.70984
O         70.07121       59.79325       58.62022
O         68.78202       58.31126       59.64904
H         69.30565       54.89471       58.39110
H         67.21219       56.86440       58.49949
H         68.19218       57.68531       56.36023
H         69.13096       56.15852       56.20168
H         70.57550       57.91073       56.95937
H         70.45802       56.70262       58.24950
N         65.29231       55.93318       57.04416
C         64.23758       55.38751       56.21750
H         63.26731       55.85966       56.48103
H         64.45110       55.58933       55.14601
H         64.15602       54.29160       56.37941
H         65.04356       56.65075       57.74156
Ca        71.65466       60.14595       57.05284
O         69.75665       60.13344       54.72241
H         69.25865       60.93494       55.02300
H         70.17186       60.40510       53.86562
O         74.74893       62.00146       57.01913
H         75.17242       62.81774       57.38572
H         74.68325       61.38808       57.79311
O         71.99191       63.32986       56.25134
H         72.68331       63.65173       55.61967
H         71.17302       63.24494       55.70123
O         72.92729       60.98593       59.87090
H         72.17727       60.96020       60.51660
H         73.73378       61.11382       60.43059

Ca 1.0



