%chk=apoCaM-CA-Ng.loop4.water4.frame570.chk
%nprocshared=20
%mem=10GB
%nosave
#b3lyp/svp scf=(tight,noincore,xqc) Test 
#IOP(5/87=12) Density=Current Pop=(MK,readradii) iop(6/33=2) iop(6/42=6)

apoCaM-CA-Ng.loop4.water4.frame570 

   -3  1 
C         46.45811        8.05419      -28.79801
C         45.70297        7.01752      -29.57645
O         46.08901        5.85991      -29.53265
H         47.50836        8.09778      -29.15446
H         46.00289        9.06018      -28.91170
H         46.45045        7.78353      -27.72095
N         44.59451        7.35909      -30.29865
C         43.79075        6.43066      -31.09681
C         43.06835        5.36687      -30.26939
O         42.35160        4.57320      -30.86492
C         44.64066        5.77895      -32.21263
C         45.30260        6.81022      -33.07943
O         44.63057        7.60617      -33.71577
O         46.64503        6.85746      -33.15836
H         44.30337        8.34848      -30.30636
H         42.99019        7.02194      -31.59584
H         43.99873        5.14101      -32.85777
H         45.41880        5.12634      -31.77367
N         43.18666        5.27865      -28.91025
C         42.51386        4.24476      -28.12579
C         40.99538        4.40408      -28.18102
O         40.53093        5.50815      -28.42952
C         42.99373        4.23631      -26.63481
C         42.71564        5.58804      -25.91487
C         44.47586        3.83052      -26.56323
C         43.03527        5.56503      -24.42069
H         43.79027        5.94115      -28.41895
H         42.79125        3.27433      -28.59255
H         42.42605        3.45166      -26.09345
H         41.63659        5.83183      -26.00633
H         43.29367        6.41683      -26.37158
H         44.61031        2.84262      -27.04929
H         45.12791        4.57314      -27.06769
H         44.81392        3.71275      -25.51503
H         42.44827        4.77041      -23.91423
H         44.11677        5.40405      -24.23951
H         42.76474        6.54595      -23.97558
N         40.13238        3.36442      -27.96476
C         40.54640        1.96661      -27.86917
C         40.63913        1.34384      -29.25864
O         41.17209        0.24938      -29.37672
C         39.57531        1.17305      -26.97720
C         39.48344        1.76517      -25.59730
O         38.41424        2.17850      -25.17711
O         40.57796        1.83928      -24.81623
H         39.12201        3.55895      -28.05642
H         41.55029        1.89684      -27.40833
H         39.91870        0.11975      -26.88732
H         38.56649        1.17157      -27.44756
N         40.14186        1.98784      -30.35733
C         40.25978        1.51129      -31.72191
C         39.66602        0.13956      -31.92539
O         38.52613       -0.09384      -31.54924
H         39.65113        2.88556      -30.24739
H         41.32913        1.52339      -32.02438
H         39.71908        2.22095      -32.38497
N         40.38945       -0.80473      -32.58720
C         39.90334       -2.14801      -32.87378
C         39.71567       -2.96702      -31.60372
O         38.67651       -3.60137      -31.48272
C         40.75514       -2.83512      -33.97293
C         42.24624       -2.83456      -33.77253
O         42.96459       -2.23489      -34.55729
O         42.80785       -3.52173      -32.77244
H         41.31697       -0.53299      -32.94584
H         38.90048       -2.07283      -33.35489
H         40.56360       -2.27264      -34.91445
H         40.39753       -3.87503      -34.13398
N         40.62173       -2.94057      -30.58279
C         40.41726       -3.65307      -29.32207
C         41.56566       -4.56642      -28.93855
O         41.48060       -5.17832      -27.88386
H         41.45461       -2.33958      -30.67410
H         39.48716       -4.25988      -29.34310
H         40.30924       -2.89859      -28.51312
N         42.68652       -4.67899      -29.71226
C         43.88477       -5.45216      -29.40527
C         44.68059       -4.85568      -28.24269
O         45.78265       -5.32779      -27.99805
C         43.59594       -6.95716      -29.18021
C         43.02775       -7.74720      -30.37990
C         41.62507       -7.37380      -30.80512
N         40.59089       -8.21967      -30.58608
O         41.41913       -6.31850      -31.38264
H         42.72336       -4.16711      -30.59122
H         44.56373       -5.37109      -30.28490
H         42.94120       -7.10576      -28.29734
H         44.56856       -7.44183      -28.94169
H         43.01665       -8.81073      -30.05657
H         43.70953       -7.68153      -31.25516
H         40.73299       -9.12120      -30.10820
H         39.63749       -7.96627      -30.88546
N         44.21332       -3.81630      -27.49225
C         44.97252       -3.19324      -26.42146
C         46.06950       -2.32481      -27.00256
O         47.19772       -2.37951      -26.53422
C         44.05035       -2.35614      -25.46147
C         43.35487       -1.12703      -26.08815
C         42.98750       -3.25910      -24.81414
H         43.28684       -3.42905      -27.67468
H         45.41550       -3.98075      -25.76948
H         44.69424       -1.97165      -24.63888
H         44.09353       -0.37773      -26.43264
H         42.68775       -1.40564      -26.92963
H         42.73781       -0.60937      -25.32339
H         43.47052       -4.10920      -24.28831
H         42.39964       -2.68403      -24.06690
H         42.28285       -3.66070      -25.57208
N         45.75802       -1.42198      -27.97443
C         46.62539       -0.31626      -28.34867
C         47.90765       -0.75423      -29.04702
O         48.03912       -1.90204      -29.44903
C         45.77744        0.70533      -29.15004
C         46.40240        2.05898      -29.34346
N         46.37701        2.65367      -30.55317
O         46.87799        2.65484      -28.38882
H         44.79891       -1.43752      -28.35482
H         46.91181        0.17724      -27.39272
H         44.85767        0.89637      -28.55685
H         45.45831        0.26454      -30.12142
H         45.91291        2.19778      -31.34997
H         46.78453        3.58925      -30.68170
N         48.93718        0.13265      -29.12996
C         50.25980       -0.14849      -29.69480
C         51.27849        0.89993      -29.23592
O         50.91722        1.80480      -28.49405
C         50.17557       -0.34279      -31.22884
C         49.36539        0.71123      -31.95285
C         48.18977        0.32475      -32.62388
C         49.75233        2.06221      -31.97933
C         47.41331        1.26515      -33.29933
C         48.96823        3.00608      -32.65632
C         47.79520        2.61189      -33.31285
O         47.03353        3.53193      -33.93745
H         48.77375        1.05232      -28.70336
H         50.65159       -1.09164      -29.25282
H         49.68941       -1.32777      -31.39640
H         51.18752       -0.42423      -31.67709
H         47.86480       -0.70842      -32.62149
H         50.65350        2.38858      -31.47800
H         46.50621        0.94755      -33.79880
H         49.26807        4.04592      -32.66465
H         46.20164        3.30139      -34.37598
N         52.59899        0.79802      -29.57091
C         53.61777        1.65002      -28.96497
C         54.20272        2.60588      -29.99325
O         54.89019        2.12805      -30.88536
C         54.72396        0.76625      -28.34335
C         55.78150        1.58643      -27.58339
C         56.85896        0.69727      -27.03145
O         57.55763        0.03754      -27.78498
O         57.07263        0.63704      -25.70332
H         52.90327        0.06530      -30.22970
H         53.19028        2.19616      -28.11085
H         55.21624        0.17695      -29.14923
H         54.25792        0.04903      -27.63166
H         55.28852        2.13287      -26.74992
H         56.25881        2.32956      -28.25688
N         54.05162        3.96663      -29.94804
C         53.16128        4.72070      -29.05870
C         53.94832        5.49431      -28.01592
O         55.17184        5.48915      -28.04607
C         52.22013        5.63531      -29.89181
C         52.96456        6.71223      -30.70967
C         52.05463        7.62607      -31.53401
O         51.30479        6.91221      -32.47654
O         51.16199        8.34838      -30.73465
H         54.61257        4.50588      -30.62206
H         52.49250        4.05030      -28.49814
H         51.50694        6.14052      -29.20593
H         51.62852        4.99337      -30.58056
H         53.65688        6.24019      -31.43247
H         53.55913        7.35201      -30.02425
N         53.29125        6.15798      -27.02348
C         53.98711        6.87698      -25.97836
H         54.59957        7.69170      -26.41798
H         53.25313        7.32287      -25.27286
H         54.64204        6.18196      -25.41037
H         52.26083        6.13785      -26.99246
Ca        49.33139        7.94559      -32.02260
O         47.31800        9.90222      -34.93203
H         46.84628        9.20581      -34.41137
H         46.77903       10.72067      -34.79162
O         50.42919        8.90076      -35.30943
H         50.77796        9.71485      -35.75170
H         50.49516        8.19747      -36.00304
O         48.94183        5.80362      -30.17402
H         48.95152        5.01550      -29.57652
H         48.35234        5.54371      -30.92578
O         49.01697        6.10570      -35.17955
H         49.10453        5.71719      -36.08566
H         48.31662        5.56016      -34.74593

Ca 1.0



