%chk=apoCaM-CA-Ng.loop3.water3.frame757.chk
%nprocshared=20
%mem=10GB
%nosave
#b3lyp/svp scf=(tight,noincore,xqc) Test 
#IOP(5/87=12) Density=Current Pop=(MK,readradii) iop(6/33=2) iop(6/42=6)

apoCaM-CA-Ng.loop3.water3.frame757 

   0  1 
C        107.98342       16.77823        2.96715
C        109.21511       15.94653        3.18504
O        109.81847       15.49307        2.22369
H        107.11510       16.31506        3.47870
H        108.15020       17.79327        3.39163
H        107.75820       16.88750        1.88542
N        109.67670       15.75926        4.44964
C        110.95032       15.11614        4.75233
C        110.90180       13.60145        4.52646
O        110.06639       12.93981        5.12655
C        111.34824       15.47512        6.19583
C        112.80214       15.26022        6.47152
O        113.23610       15.47531        7.58973
O        113.64467       14.85811        5.50368
H        109.14761       16.20417        5.21705
H        111.71026       15.57666        4.09819
H        110.71644       14.90174        6.90848
H        111.17388       16.55766        6.37384
N        111.75504       12.99358        3.64688
C        111.67929       11.57959        3.27894
C        112.23504       10.64453        4.35278
O        111.84897        9.48389        4.34371
C        112.32637       11.37959        1.88663
C        112.23298        9.95566        1.31757
C        112.74257        9.93083       -0.13298
C        112.72386        8.51305       -0.71860
N        113.16516        8.51949       -2.11421
H        112.43002       13.57761        3.14574
H        110.60049       11.33665        3.14723
H        113.39288       11.68163        1.91411
H        111.79532       12.06544        1.18802
H        111.17559        9.61223        1.33129
H        112.84703        9.26978        1.93961
H        113.78338       10.32085       -0.17205
H        112.09398       10.58902       -0.75323
H        111.69370        8.09658       -0.66479
H        113.39983        7.86098       -0.12189
H        112.51010        9.09272       -2.69462
H        114.13275        8.90997       -2.18786
H        113.16748        7.53954       -2.47885
N        113.11034       11.06479        5.31777
C        113.52166       10.21862        6.44826
C        113.02534       10.78603        7.77745
O        112.90009       10.01386        8.71806
C        115.03623        9.88152        6.42875
C        115.91834       11.08406        6.27417
O        115.92806       12.05663        7.19270
O        116.57502       11.22612        5.25537
H        113.47201       12.02700        5.26347
H        113.00761        9.23549        6.37379
H        115.21642        9.22731        5.54804
H        115.32241        9.31055        7.33840
N        112.66625       12.09519        7.92247
C        111.98667       12.62907        9.09211
C        112.83173       13.57670        9.91173
O        112.27834       14.18685       10.81562
H        112.83703       12.75669        7.16072
H        111.64089       11.82355        9.77450
H        111.07974       13.16107        8.73124
N        114.18127       13.68724        9.73174
C        115.03787       14.46197       10.62476
C        116.01129       15.34959        9.84624
O        116.13587       15.20915        8.64079
C        115.76477       13.43053       11.51753
C        116.63671       14.00888       12.59775
N        117.95096       13.69130       12.66087
O        116.14817       14.74527       13.44171
H        114.63840       13.10096        9.02264
H        114.41634       15.11918       11.27202
H        116.36069       12.75276       10.86720
H        114.99218       12.81018       12.02433
H        118.37528       13.05558       11.96922
H        118.54583       14.07011       13.41182
N        116.73481       16.30446       10.49534
C        117.75949       17.13810        9.88014
C        117.26136       17.99244        8.73204
O        116.26686       18.68684        8.88678
H        116.57024       16.44511       11.50217
H        118.60746       16.50102        9.54913
H        118.14954       17.82648       10.66081
N        117.97482       18.04962        7.56638
C        117.61417       18.90876        6.43613
C        116.34603       18.42624        5.74904
O        115.79648       17.41013        6.15015
C        118.77271       18.95909        5.40609
C        120.02946       19.59370        5.95803
C        121.23082       18.86734        6.01574
C        120.01955       20.93282        6.38971
C        122.39876       19.46896        6.49717
C        121.18735       21.53097        6.87227
C        122.38031       20.80413        6.92640
O        123.49977       21.39899        7.38628
H        118.84828       17.50378        7.50696
H        117.43370       19.94022        6.80923
H        118.48439       19.56507        4.52256
H        118.97646       17.92780        5.04641
H        121.26743       17.83804        5.68201
H        119.11103       21.51975        6.34551
H        123.31821       18.89832        6.53137
H        121.16593       22.56357        7.19840
H        124.34814       20.93543        7.43233
N        115.82488       19.13681        4.69865
C        114.60926       18.79627        3.95774
C        114.78876       17.48689        3.18959
O        115.15228       16.48766        3.78903
C        113.35661       18.77977        4.88615
C        112.03433       18.55960        4.09979
C        113.26982       20.06177        5.73688
C        111.63979       19.67039        3.12142
H        116.30246       20.00468        4.41260
H        114.44446       19.60695        3.21716
H        113.45157       17.92973        5.59277
H        111.20319       18.44590        4.82883
H        112.10913       17.62299        3.51982
H        113.21317       20.96724        5.09816
H        112.37778       20.02470        6.39746
H        114.16127       20.16329        6.39027
H        112.39868       19.80339        2.32619
H        110.68252       19.39334        2.63110
H        111.48195       20.63269        3.64860
N        114.49392       17.40869        1.85672
C        114.57949       16.14997        1.10940
C        115.05338       16.29771       -0.33432
O        115.19427       15.27997       -0.99998
C        113.20276       15.48298        1.11781
O        112.26492       16.23197        0.39118
H        114.04127       18.22534        1.42539
H        115.29127       15.46878        1.62342
H        112.87551       15.37706        2.16561
H        113.26035       14.46140        0.68245
H        111.90491       16.92125        1.00780
N        115.26739       17.51283       -0.90843
C        115.61061       17.69477       -2.31353
C        116.98317       17.13035       -2.63326
O        117.89003       17.35915       -1.84474
C        115.62097       19.19027       -2.63193
H        115.14140       18.36322       -0.34639
H        114.81920       17.24357       -2.94493
H        115.86862       19.34107       -3.69369
H        114.61655       19.62496       -2.44039
H        116.37290       19.72383       -2.01258
N        117.28345       16.48000       -3.79848
C        116.35643       16.21673       -4.90008
C        117.14833       16.00568       -6.18721
O        118.00257       15.12908       -6.18906
C        115.52193       14.96339       -4.60906
H        118.27750       16.23618       -3.93803
H        115.66871       17.06681       -5.02745
H        114.91975       15.08345       -3.68791
H        114.82453       14.77210       -5.45361
H        116.17836       14.07550       -4.48332
N        116.95930       16.72080       -7.33950
C        115.93797       17.74036       -7.57887
C        116.13018       18.96602       -6.70818
O        115.19842       19.33378       -6.00678
C        115.94762       18.14339       -9.07378
C        114.83305       19.14121       -9.43101
C        114.82759       19.43660      -10.90357
O        115.02325       20.69480      -11.34179
O        114.63220       18.54086      -11.71006
H        117.56696       16.46771       -8.13597
H        114.93948       17.29057       -7.37634
H        115.79788       17.21974       -9.67591
H        116.93380       18.57907       -9.34913
H        114.98537       20.08991       -8.87229
H        113.84384       18.72025       -9.15000
N        117.29281       19.67255       -6.72821
C        117.48111       20.86126       -5.92318
H        118.49140       21.28520       -6.09976
H        116.72047       21.62633       -6.18951
H        117.39215       20.61372       -4.84586
H        118.06692       19.36243       -7.33378
Ca       115.57990       14.02211        6.21062
O        115.44754       13.09966        3.02690
H        115.28277       12.14704        3.23657
H        115.65395       13.10280        2.05882
O        117.77015       15.28868        3.93223
H        118.64450       15.70256        4.14001
H        117.85819       14.98048        2.99566
O        118.76367       14.44727        6.78070
H        118.63369       14.50752        7.76002
H        119.45433       15.12780        6.58018

Ca 1.0



