%chk=apoCaM-CA-Ng.loop2.water3.frame617.chk
%nprocshared=20
%mem=10GB
%nosave
#b3lyp/svp scf=(tight,noincore,xqc) Test 
#IOP(5/87=12) Density=Current Pop=(MK,readradii) iop(6/33=2) iop(6/42=6)

apoCaM-CA-Ng.loop2.water3.frame617 

   -2  1 
C         62.43694       31.19092       89.81663
C         63.32007       32.36506       90.14486
O         62.87835       33.50050       90.04410
H         61.45034       31.51943       89.42507
H         62.92542       30.55650       89.04556
H         62.27362       30.57930       90.72857
N         64.61137       32.14797       90.52001
C         65.56940       33.21129       90.82021
C         65.17589       33.95029       92.08783
O         65.02913       33.30756       93.11822
C         66.97480       32.59986       91.01189
C         68.08826       33.61541       91.00581
O         69.35012       33.20492       91.22879
O         67.87597       34.79395       90.76412
H         64.93867       31.16948       90.53395
H         65.60441       33.89847       89.94534
H         67.18844       31.88931       90.18558
H         66.99588       32.02992       91.96716
N         65.02176       35.30526       92.09948
C         64.52373       36.02049       93.27327
C         63.00189       35.92018       93.30278
O         62.44585       35.56530       92.27181
C         64.94793       37.48339       93.21030
H         65.22387       35.83369       91.23866
H         64.99726       35.57218       94.16816
H         64.53133       37.95813       92.29687
H         64.59634       38.04001       94.09828
H         66.05591       37.54339       93.18110
N         62.21287       36.18194       94.39100
C         62.63860       36.63196       95.71898
C         63.72174       35.77556       96.34485
O         63.77526       34.57687       96.11133
C         61.43319       36.69568       96.69018
C         60.70907       35.36223       96.79589
O         59.53543       35.29002       96.46413
O         61.34572       34.26419       97.28570
H         61.19921       36.04185       94.24783
H         63.03426       37.66529       95.62718
H         60.73130       37.48066       96.32400
H         61.78218       37.01214       97.69759
N         64.65496       36.37308       97.13685
C         65.75840       35.67545       97.77446
C         67.06903       36.01784       97.09469
O         67.04182       36.67168       96.06073
H         64.59817       37.39351       97.28669
H         65.62157       34.57463       97.75533
H         65.78623       36.00768       98.83314
N         68.28306       35.64570       97.59773
C         68.49126       34.86998       98.81595
C         69.39286       33.66889       98.51747
O         70.27377       33.35889       99.30971
C         69.08855       35.80362       99.90715
C         68.07472       36.77270      100.47002
N         67.03046       36.31327      101.20093
O         68.21802       37.97560      100.30757
H         69.12680       35.95558       97.08912
H         67.53928       34.44448       99.19124
H         69.95072       36.35934       99.47231
H         69.45858       35.22446      100.77748
H         66.91529       35.30338      101.37163
H         66.34921       36.96405      101.61954
N         69.21980       32.93808       97.37517
C         70.01461       31.76127       97.04666
C         69.66182       30.54715       97.88918
O         70.44504       29.60746       97.90587
H         68.52093       33.24765       96.68567
H         71.09899       32.00677       97.11002
H         69.81663       31.46513       95.99348
N         68.48222       30.47866       98.57913
C         68.04068       29.31144       99.34902
C         66.60219       28.93688       98.99151
O         65.97935       29.62103       98.19844
C         68.10568       29.62198      100.85890
C         69.52206       29.94634      101.32487
O         67.25304       30.69799      101.15838
H         67.85084       31.29097       98.55344
H         68.69759       28.43635       99.13966
H         67.79061       28.71037      101.41953
H         66.78667       30.47068      102.00514
H         69.93843       30.81137      100.76888
H         69.49751       30.19886      102.40538
H         70.18037       29.06315      101.17995
N         66.00246       27.86279       99.57958
C         64.63020       27.43348       99.30278
C         63.64362       28.09564      100.27624
O         63.83976       28.00974      101.47923
C         64.51332       25.88627       99.46698
C         63.10477       25.35897       99.06964
C         65.56660       25.16571       98.59783
C         62.78943       24.01395       99.72951
H         66.56859       27.28751      100.21965
H         64.37260       27.65537       98.24076
H         64.69531       25.65449      100.54098
H         63.04471       25.27097       97.96487
H         62.29156       26.03845       99.39241
H         65.45980       25.48642       97.53802
H         66.59911       25.39380       98.92909
H         65.44636       24.06600       98.63869
H         63.58600       23.26026       99.57424
H         62.66153       24.17117      100.82314
H         61.83878       23.61154       99.32204
N         62.52559       28.71794       99.80683
C         61.41611       29.22960      100.61134
C         60.02562       28.72140      100.17894
O         59.08233       29.03637      100.89332
C         61.45613       30.76320      100.62653
C         61.54713       31.35254       99.26265
O         62.68597       31.96944       98.88751
O         60.60614       31.26547       98.49279
H         62.46797       28.84678       98.81346
H         61.54260       28.89791      101.66196
H         62.36667       31.06169      101.18180
H         60.57284       31.18704      101.15084
N         59.80292       27.90692       99.09682
C         58.51883       27.25174       98.86713
C         58.23378       27.07802       97.35726
O         58.13046       25.94752       96.90109
C         58.60843       25.89110       99.59305
C         57.26158       25.32590       99.95114
C         56.68420       24.28720       99.20863
C         56.58401       25.83001      101.07755
C         55.43723       23.77137       99.57903
C         55.34869       25.29913      101.45486
C         54.77280       24.27324      100.70270
H         60.59500       27.56357       98.55438
H         57.69805       27.84089       99.33785
H         59.15444       26.00766      100.55604
H         59.23303       25.19198       98.99454
H         57.19226       23.88622       98.34161
H         57.02302       26.62153      101.67455
H         54.98610       22.97890       98.99792
H         54.83995       25.68169      102.33103
H         53.81316       23.86554      100.99226
N         58.09126       28.13951       96.50273
C         57.79407       28.01630       95.06865
C         58.82802       27.23627       94.24188
O         58.53207       26.85134       93.11884
C         57.72284       29.47878       94.60388
C         57.20556       30.17128       95.85252
C         58.04107       29.51284       96.94132
H         56.80417       27.51680       94.99188
H         58.75735       29.85766       94.43115
H         57.12239       29.65605       93.68728
H         57.23407       31.27754       95.85334
H         56.14607       29.86337       95.99686
H         59.07643       29.91129       96.98009
H         57.52380       29.64850       97.91435
N         60.07199       27.00191       94.74079
C         61.12572       26.22742       94.09236
C         60.69617       24.77272       94.08287
O         60.70824       24.13874       93.03690
C         62.47856       26.34007       94.85650
C         63.12695       27.75192       94.96343
C         62.39692       28.75012       95.81381
O         62.31214       30.05657       95.43960
O         61.88833       28.36755       96.83708
H         60.25982       27.38095       95.66084
H         61.31639       26.59505       93.05877
H         63.21917       25.70377       94.31844
H         62.37699       25.91070       95.87481
H         63.31702       28.20769       93.97348
H         64.11187       27.59721       95.46066
N         60.29405       24.18487       95.24613
C         59.83707       22.81666       95.31989
H         58.89910       22.69685       94.73646
H         60.61805       22.13472       94.92667
H         59.62964       22.54995       96.37937
H         60.29631       24.73559       96.11784
Ca        61.81708       32.17310       96.33145
O         64.62411       31.67982       96.23651
H         64.69072       30.77346       96.62234
H         65.55457       32.01138       96.19749
O         59.59055       32.22446       94.92244
H         59.34962       32.96670       94.31782
H         59.12010       32.42174       95.77052
O         62.18962       32.99851       93.73666
H         61.74687       33.35581       92.93033
H         62.86602       32.37046       93.38679

Ca 1.0



