%chk=apoCaM-CA-Ng.loop1.water3.frame1035.chk
%nprocshared=20
%mem=10GB
%nosave
#b3lyp/svp scf=(tight,noincore,xqc) Test 
#IOP(5/87=12) Density=Current Pop=(MK,readradii) iop(6/33=2) iop(6/42=6)

apoCaM-CA-Ng.loop1.water3.frame1035 

   0  1 
C         14.74758       32.17751       70.30973
C         14.59159       33.34520       71.23984
O         14.34147       34.43776       70.75824
H         13.81570       32.04562       69.72080
H         15.59292       32.36715       69.61520
H         14.95098       31.23765       70.86432
N         14.69295       33.17368       72.58958
C         14.55212       34.24112       73.58046
C         15.82540       35.08185       73.67200
O         16.53630       35.00643       74.66549
C         14.20430       33.63180       74.95909
C         12.91129       32.86480       74.91628
O         11.87104       33.42594       74.60941
O         12.89487       31.55419       75.22418
H         14.82943       32.21148       72.93623
H         13.69277       34.89910       73.32201
H         14.09443       34.44833       75.70680
H         15.02336       32.95772       75.29285
N         16.13756       35.96036       72.68363
C         17.31132       36.81770       72.68502
C         16.95556       38.26489       73.00845
O         17.59611       38.78948       73.91035
C         18.07545       36.69150       71.35107
C         18.62593       35.27261       71.16106
C         19.32459       35.12252       69.80654
C         19.91626       33.71511       69.65967
N         20.52787       33.53752       68.34398
H         15.49862       36.04717       71.89501
H         18.02450       36.49971       73.47995
H         18.93247       37.40152       71.34990
H         17.42241       36.94733       70.49540
H         17.79516       34.53546       71.21171
H         19.34667       35.05715       71.98079
H         20.13995       35.87334       69.71357
H         18.58182       35.29913       68.99744
H         19.11392       32.95552       69.79253
H         20.68474       33.55628       70.44933
H         20.93793       32.57749       68.28579
H         19.80233       33.64033       67.59747
H         21.28734       34.24165       68.19902
N         16.00929       39.02837       72.38237
C         15.03484       38.59582       71.37994
C         13.82624       37.92728       72.04536
O         13.82763       37.79761       73.26085
C         14.62528       39.79123       70.50741
C         13.76095       40.79563       71.20716
O         12.55776       41.03722       70.68570
O         14.14618       41.42732       72.17617
H         15.94878       40.00310       72.70773
H         15.51517       37.90248       70.66981
H         14.05749       39.40913       69.63134
H         15.53349       40.29198       70.10769
N         12.76140       37.47249       71.31250
C         11.63386       36.76652       71.91841
C         10.33290       37.53399       71.82057
O         10.29523       38.61230       71.25522
H         12.75001       37.61043       70.29203
H         11.81301       36.59008       72.99938
H         11.52272       35.77284       71.43435
N          9.22549       37.03390       72.44294
C          7.93654       37.72811       72.54007
C          6.80423       36.79873       72.08081
O          7.09287       35.64106       71.81313
C          7.76697       38.11882       74.02773
C          8.86562       39.03942       74.47752
O          8.99836       40.13724       73.95974
O          9.70429       38.65792       75.45957
H          9.32569       36.14237       72.95302
H          7.93236       38.64055       71.90647
H          7.78391       37.19593       74.64900
H          6.82378       38.63534       74.23962
N          5.48469       37.16101       71.97220
C          4.90860       38.48680       72.13548
C          5.24996       39.38207       70.97712
O          4.89785       39.03989       69.85659
H          4.81368       36.41470       71.72842
H          5.14925       38.93325       73.10926
H          3.80016       38.39533       72.12477
N          5.90995       40.55755       71.16864
C          6.20124       41.49084       70.08493
C          7.68552       41.52393       69.81836
O          8.47014       41.31852       70.73391
C          5.62939       42.89065       70.41071
C          5.87515       43.90690       69.28554
O          6.19151       43.37027       71.60408
H          6.22741       40.79826       72.12096
H          5.71236       41.14951       69.14573
H          4.52805       42.76487       70.53572
H          5.54388       44.01602       71.99051
H          5.39866       44.87624       69.54177
H          6.96126       44.09034       69.14288
H          5.43974       43.54177       68.33140
N          8.12721       41.73037       68.54197
C          9.52115       41.72354       68.11958
C         10.32122       42.90868       68.73121
O          9.73021       43.49267       69.85703
C         10.21062       40.35874       68.41995
C          9.34898       39.12898       68.01767
C         11.60592       40.27799       67.77106
C          8.98657       39.04732       66.53334
H          7.42551       41.87233       67.79946
H          9.52542       41.84014       67.01325
H         10.35899       40.28751       69.51160
H          8.40335       39.13593       68.60041
H          9.89031       38.19970       68.30182
H         12.09280       39.31434       68.03511
H         11.54288       40.35458       66.66665
H         12.26061       41.09881       68.12761
H          8.36592       38.14278       66.36062
H          8.39501       39.93207       66.22149
H          9.89380       38.96513       65.90221
N         10.77656       43.90702       67.75769
C         11.82802       44.78158       68.33530
C         11.24668       46.00400       69.04911
O         12.03194       46.79030       69.56161
C         12.80813       45.27485       67.22711
C         12.09533       46.06687       66.11129
O         13.55454       44.19723       66.70710
H         11.20045       43.34678       66.98536
H         12.44124       44.21177       69.07404
H         13.54920       45.96456       67.68810
H         13.09180       43.82607       65.91206
H         11.34758       45.43114       65.59112
H         11.57347       46.95318       66.52910
H         12.83866       46.41964       65.36633
N          9.90604       46.26612       69.08524
C          9.36037       47.51705       69.60880
C          9.72673       47.73592       71.07163
O          9.21014       47.03812       71.93197
C          7.82213       47.54730       69.41026
C          7.18807       48.85571       69.88994
O          7.53235       47.37591       68.04542
H          9.25335       45.59674       68.65422
H          9.80259       48.33932       69.00331
H          7.38765       46.70239       69.99895
H          6.65465       46.91458       67.98847
H          7.60734       49.71598       69.32759
H          6.09045       48.81644       69.72367
H          7.36341       49.00761       70.97549
N         10.63064       48.70460       71.41126
C         11.00730       49.04800       72.77844
C         11.41305       47.82555       73.57733
O         10.72568       47.45550       74.52025
C          9.93188       49.91136       73.47405
C          9.74785       51.25230       72.73559
C          9.01140       52.28680       73.59634
C          8.92183       53.63766       72.86825
N          8.36469       54.67122       73.74043
H         11.09952       49.22675       70.65566
H         11.90546       49.70623       72.74684
H         10.32122       50.13571       74.49269
H          8.96072       49.38101       73.57958
H          9.22273       51.08422       71.76975
H         10.75115       51.68201       72.51897
H          9.59267       52.43339       74.53392
H          7.99383       51.92642       73.85967
H          8.28895       53.52891       71.95982
H          9.93890       53.95888       72.54834
H          8.30638       55.57105       73.21069
H          7.40833       54.40012       74.06332
H          8.99046       54.81310       74.56728
N         12.57506       47.18570       73.27196
C         13.07378       46.02800       74.00302
C         13.31679       44.84629       73.06695
O         12.63286       43.85481       73.26682
C         14.29787       46.39971       74.86096
C         13.91286       47.38003       75.98147
C         15.09615       47.70419       76.84565
O         15.47883       48.85791       76.95565
O         15.73172       46.72490       77.51763
H         13.14636       47.58482       72.51949
H         12.30351       45.68258       74.73136
H         15.09112       46.86458       74.24917
H         14.69380       45.47247       75.33146
H         13.12669       46.92577       76.62357
H         13.50774       48.31661       75.53999
N         14.22329       44.79422       72.04120
C         15.16694       45.82184       71.65617
H         15.76318       45.46520       70.78941
H         14.65855       46.74335       71.32736
H         15.88851       46.01837       72.46908
H         14.25762       43.92720       71.48359
Ca        11.11766       42.58379       71.34077
O          8.97857       44.21854       72.90212
H          8.60955       44.46302       72.01715
H          8.22019       43.79733       73.37863
O         12.12269       40.31068       74.10715
H         11.61824       40.52358       74.93086
H         13.02419       40.06436       74.43256
O         10.37049       42.97256       75.23132
H          9.87669       43.20391       76.05729
H         11.32277       42.98007       75.50156

Ca 1.0



