%chk=apoCaM-CA-Ng.loop1.water1.frame840.chk
%nprocshared=20
%mem=10GB
%nosave
#b3lyp/svp scf=(tight,noincore,xqc) Test 
#IOP(5/87=12) Density=Current Pop=(MK,readradii) iop(6/33=2) iop(6/42=6)

apoCaM-CA-Ng.loop1.water1.frame840 

   0  1 
C         41.46824      107.78565       91.04707
C         40.22382      107.40234       90.29631
O         39.25586      106.99368       90.92115
H         42.27251      108.12102       90.35754
H         41.23808      108.61919       91.74323
H         41.84444      106.91702       91.62585
N         40.17121      107.53867       88.94263
C         38.98437      107.23400       88.14431
C         38.57067      105.76137       88.20005
O         39.23985      104.95376       88.82771
C         39.14332      107.77206       86.69436
C         40.37480      107.35892       85.92512
O         40.51687      107.76500       84.78133
O         41.35163      106.61803       86.48214
H         40.99981      107.93466       88.47605
H         38.12942      107.79680       88.57920
H         39.17041      108.88084       86.75174
H         38.24728      107.49974       86.09904
N         37.40688      105.37373       87.59674
C         36.80128      104.04880       87.71238
C         37.25146      103.18457       86.53895
O         36.43236      102.78336       85.72320
C         35.26020      104.24138       87.76601
C         34.42885      103.00304       88.16079
C         32.91502      103.23020       87.93390
C         32.33739      104.47602       88.63560
N         30.92231      104.65508       88.30707
H         36.85329      106.09864       87.11648
H         37.10771      103.57052       88.67025
H         34.92330      104.62073       86.77621
H         35.04846      105.02002       88.52977
H         34.63066      102.75048       89.22527
H         34.71537      102.12717       87.54366
H         32.36143      102.32735       88.27575
H         32.74575      103.33950       86.84085
H         32.87520      105.38552       88.29465
H         32.45936      104.38445       89.73706
H         30.36073      103.84446       88.65303
H         30.57388      105.53146       88.75964
H         30.80467      104.75069       87.27137
N         38.56651      102.84463       86.40813
C         39.07615      101.99255       85.34009
C         40.43145      101.32082       85.75830
O         41.54116      102.13445       86.05714
C         38.98543      102.62323       83.91838
C         39.38912      104.06092       83.74065
O         39.46696      104.52210       82.61343
O         39.38753      104.90731       84.77855
H         39.22279      103.14352       87.14057
H         38.39753      101.13219       85.29332
H         37.92383      102.60205       83.58786
H         39.54134      101.98053       83.20399
N         40.90017      100.19807       84.92338
C         39.94275       99.12073       84.61217
C         39.10493       98.66109       85.79283
O         39.64851       98.23202       86.80035
H         41.70142       99.76491       85.43947
H         40.51095       98.24847       84.22090
H         39.29232       99.46722       83.78277
N         37.74732       98.76451       85.71888
C         36.83233       98.46075       86.81137
C         36.71666       96.96520       87.05778
O         36.99517       96.52043       88.16253
C         35.44811       99.06504       86.48193
C         34.44065       98.82754       87.56931
O         33.40460       98.23083       87.32338
O         34.67106       99.27778       88.81694
H         37.34703       99.15984       84.85338
H         37.19590       98.97237       87.73143
H         35.06572       98.64995       85.52323
H         35.56501      100.16146       86.34666
N         36.25348       96.13761       86.07794
C         35.99316       94.71490       86.25624
C         37.22253       93.84400       86.42027
O         37.05804       92.63229       86.42092
H         36.00437       96.54743       85.16499
H         35.48923       94.35348       85.33248
H         35.29210       94.55796       87.10361
N         38.47719       94.36163       86.52712
C         39.68959       93.55224       86.50439
C         40.54048       94.00736       85.33852
O         40.18270       94.97757       84.68085
C         40.46882       93.65995       87.84124
C         40.84710       95.09981       88.21859
O         39.69956       93.09758       88.87159
H         38.60625       95.37940       86.55850
H         39.44763       92.47907       86.33887
H         41.40561       93.06641       87.72522
H         40.33482       92.80659       89.57847
H         39.94047       95.70473       88.42517
H         41.47211       95.09121       89.13645
H         41.42680       95.58712       87.40953
N         41.69471       93.35644       85.02556
C         42.58917       93.83860       83.98149
C         42.62355       92.86602       82.81537
O         43.08775       93.25788       81.75357
C         44.00516       94.12937       84.57622
C         43.88505       94.83339       85.95805
C         44.85127       94.97587       83.60387
C         45.21826       95.10689       86.64965
H         41.96451       92.52105       85.56643
H         42.18679       94.79300       83.57733
H         44.51393       93.15501       84.75183
H         43.33304       94.16273       86.64897
H         43.31875       95.78445       85.86234
H         44.97043       94.48349       82.62130
H         44.37946       95.97142       83.45293
H         45.87681       95.12378       83.99545
H         45.02233       95.49760       87.67098
H         45.80739       94.16927       86.73655
H         45.80276       95.87226       86.10252
N         42.15906       91.58259       82.92532
C         42.17062       90.65315       81.80828
C         43.29269       89.65602       81.99625
O         43.87078       89.56291       83.07136
C         40.78715       89.97493       81.64088
C         39.67382       91.01762       81.47894
O         40.79849       89.13438       80.51559
H         41.82990       91.21644       83.82887
H         42.40657       91.20320       80.87068
H         40.58430       89.36976       82.55594
H         39.99840       88.54953       80.58089
H         39.61370       91.67006       82.37569
H         39.86046       91.64644       80.58294
H         38.69330       90.50900       81.36296
N         43.72630       88.96171       80.91707
C         44.88418       88.08597       80.91570
C         45.99209       88.71060       80.08161
O         47.14487       88.61044       80.47925
C         44.47053       86.68543       80.39381
C         45.63011       85.68324       80.41029
O         43.96644       86.76503       79.08384
H         43.23560       89.11470       80.02519
H         45.28149       87.94049       81.94603
H         43.69298       86.27566       81.08306
H         42.98028       86.85651       79.15258
H         46.05398       85.59335       81.43296
H         45.26421       84.68267       80.09397
H         46.43381       85.99418       79.70935
N         45.72382       89.30208       78.87946
C         46.75859       89.66662       77.92698
C         46.57008       91.06281       77.35523
O         45.44241       91.48874       77.14636
C         46.63230       88.63242       76.80787
C         47.78740       88.62760       75.80513
C         47.57046       87.56816       74.70818
C         47.27400       86.13873       75.21629
N         48.34321       85.60207       76.05937
H         44.75173       89.36500       78.54909
H         47.77293       89.56549       78.37473
H         45.65896       88.76536       76.28444
H         46.62755       87.64447       77.31364
H         48.73587       88.42902       76.34921
H         47.87833       89.61770       75.31093
H         48.46844       87.55386       74.05495
H         46.70212       87.88352       74.08945
H         47.13309       85.47490       74.33668
H         46.31337       86.11971       75.77599
H         49.23249       85.54173       75.51435
H         48.48513       86.19286       76.90922
H         48.07055       84.64371       76.37697
N         47.65831       91.75957       76.92486
C         47.57278       93.00478       76.16753
C         46.89452       94.13226       76.94044
O         45.95164       94.68624       76.39240
C         48.95129       93.43719       75.60898
C         49.49977       92.39485       74.61021
C         50.75158       92.87380       73.93397
O         51.85438       93.14392       74.65702
O         50.77960       93.00392       72.71989
H         48.58829       91.34229       77.08126
H         46.94889       92.81627       75.26282
H         49.68319       93.61745       76.42488
H         48.81096       94.39078       75.05174
H         48.73038       92.19912       73.82998
H         49.72264       91.43628       75.12209
N         47.25488       94.56711       78.18377
C         48.28296       93.99986       79.02898
H         49.03100       94.77963       79.27640
H         47.80925       93.64983       79.97184
H         48.80946       93.14690       78.57431
H         46.72517       95.35648       78.58640
Ca        41.43813      104.38797       86.22112
O         42.75293      104.80221       88.79796
H         41.76568      104.76164       88.83520
H         43.03964      104.52677       89.70322

Ca 1.0



