%chk=apoCaM-CA-Ng.loop1.water1.frame815.chk
%nprocshared=20
%mem=10GB
%nosave
#b3lyp/svp scf=(tight,noincore,xqc) Test 
#IOP(5/87=12) Density=Current Pop=(MK,readradii) iop(6/33=2) iop(6/42=6)

apoCaM-CA-Ng.loop1.water1.frame815 

   0  1 
C         85.18891      -17.20927       54.45136
C         86.44210      -16.39121       54.53492
O         87.43955      -16.89909       55.02819
H         84.36128      -16.63935       53.98021
H         85.38468      -18.11953       53.84718
H         84.87569      -17.51067       55.47323
N         86.47257      -15.10926       54.06805
C         87.67541      -14.28007       54.12653
C         88.15164      -14.07095       55.56107
O         87.48477      -14.50065       56.49061
C         87.46868      -12.94911       53.35977
C         86.35822      -12.06656       53.87134
O         85.61103      -12.42012       54.93420
O         86.11924      -11.01605       53.29729
H         85.61825      -14.72559       53.63535
H         88.48520      -14.82798       53.59604
H         87.23972      -13.19905       52.30036
H         88.41305      -12.36493       53.36561
N         89.34532      -13.46040       55.80109
C         89.97713      -13.40244       57.11596
C         89.61051      -12.13657       57.85965
O         90.43987      -11.26035       58.06026
C         91.49354      -13.67157       56.99465
C         91.72616      -15.16526       56.68781
C         93.17860      -15.54824       56.38248
C         94.17882      -15.16578       57.48213
N         95.51150      -15.67474       57.15623
H         89.89269      -13.12733       54.99288
H         89.59968      -14.21761       57.77562
H         91.98960      -13.45144       57.96495
H         91.93400      -13.01156       56.21584
H         91.11953      -15.46913       55.80777
H         91.37570      -15.75686       57.56432
H         93.48880      -15.07153       55.42854
H         93.20077      -16.65222       56.24411
H         93.85571      -15.58798       58.45912
H         94.22516      -14.05827       57.57177
H         95.49795      -16.72088       57.14032
H         95.81972      -15.31543       56.22325
H         96.19131      -15.35706       57.88378
N         88.38685      -12.09535       58.45660
C         87.98090      -11.12794       59.46240
C         86.95044      -11.79568       60.44327
O         85.95863      -12.66118       59.94774
C         87.79469       -9.67130       58.91894
C         86.96894       -9.27162       57.69931
O         86.15317      -10.08946       57.00939
O         87.07686       -8.12124       57.30523
H         87.77846      -12.91173       58.31932
H         88.84302      -11.01072       60.14636
H         88.82124       -9.35441       58.63179
H         87.49826       -9.02113       59.77007
N         86.51230      -11.06138       61.63754
C         87.59356      -10.77557       62.60228
C         88.70159      -11.81558       62.64677
O         88.42799      -12.98257       62.89076
H         85.82691      -11.68061       62.13208
H         87.15170      -10.69543       63.62154
H         88.01884       -9.78004       62.36317
N         89.99221      -11.42561       62.42990
C         91.14302      -12.32010       62.45452
C         91.98528      -11.99422       63.67182
O         91.80684      -10.93723       64.26523
C         91.91694      -12.17225       61.13133
C         93.14771      -13.02857       61.04795
O         94.24306      -12.51074       60.89681
O         93.04921      -14.36932       61.11736
H         90.17921      -10.42355       62.27064
H         90.79846      -13.37233       62.56884
H         92.20502      -11.10494       61.00222
H         91.24368      -12.45197       60.29501
N         92.80347      -12.94478       64.21023
C         93.40479      -12.78754       65.52369
C         92.35658      -12.76061       66.63045
O         92.73678      -12.56215       67.77553
H         92.94542      -13.83929       63.71921
H         94.00750      -11.85335       65.53866
H         94.08402      -13.64252       65.72935
N         91.02533      -12.94924       66.36895
C         89.97044      -12.87439       67.36588
C         89.05902      -11.69600       67.06486
O         89.22556      -11.03169       66.04988
C         89.17119      -14.20813       67.41069
C         88.47403      -14.55441       66.08351
O         90.02856      -15.26604       67.75087
H         90.71186      -13.13531       65.41185
H         90.40603      -12.69297       68.37309
H         88.36265      -14.12861       68.17406
H         90.12866      -15.25039       68.73834
H         87.78969      -13.74176       65.76527
H         89.20605      -14.73698       65.27089
H         87.87577      -15.48160       66.20600
N         88.07758      -11.37064       67.94563
C         87.14059      -10.26862       67.75972
C         87.41847       -9.19654       68.80298
O         87.48393       -8.02878       68.44746
C         85.67270      -10.78365       67.83827
C         85.46206      -11.96875       66.85765
C         84.69529       -9.62982       67.52921
C         84.06036      -12.57925       66.90286
H         87.99307      -11.94165       68.79898
H         87.26990       -9.80795       66.75336
H         85.47669      -11.15147       68.87030
H         86.16086      -12.78411       67.13503
H         85.68713      -11.65233       65.81556
H         83.64114       -9.95179       67.63917
H         84.83912       -8.78542       68.23410
H         84.85022       -9.25711       66.49299
H         83.29287      -11.86170       66.55039
H         84.02455      -13.46187       66.22954
H         83.81688      -12.91072       67.93447
N         87.65948       -9.53644       70.10243
C         87.94804       -8.57840       71.16394
C         87.02722       -8.88282       72.34258
O         86.23816       -9.81495       72.25626
C         89.45346       -8.66941       71.53719
C         90.34155       -8.38519       70.31671
O         89.76644       -7.72501       72.52722
H         87.68460      -10.53083       70.36424
H         87.74696       -7.53936       70.82060
H         89.66275       -9.69813       71.91282
H         90.59913       -8.03071       72.97251
H         90.17378       -9.13429       69.51552
H         90.12971       -7.37040       69.91427
H         91.41191       -8.43148       70.60781
N         87.05649       -8.13619       73.48278
C         86.14763       -8.39300       74.59270
C         84.72586       -8.17640       74.10622
O         83.90814       -9.08229       74.19139
C         86.51532       -7.49955       75.81362
C         85.61501       -7.77259       77.02230
O         86.45450       -6.13584       75.48252
H         87.71614       -7.35215       73.56005
H         86.27104       -9.44826       74.92752
H         87.56290       -7.76371       76.09485
H         87.06154       -5.65561       76.10447
H         85.94852       -7.15425       77.88310
H         84.55934       -7.51478       76.79366
H         85.67663       -8.84201       77.31466
N         84.38722       -6.98030       73.56086
C         83.06475       -6.62750       73.06485
C         83.18300       -6.04589       71.66168
O         84.29287       -5.95403       71.14924
C         82.41459       -5.67377       74.09660
C         83.21389       -4.38509       74.38314
C         82.73259       -3.71379       75.67584
C         83.59505       -2.48834       76.01239
N         83.25053       -1.94947       77.32753
H         85.11926       -6.25903       73.50606
H         82.41222       -7.52695       73.01091
H         82.35673       -6.26060       75.04087
H         81.37413       -5.41316       73.80711
H         83.15332       -3.69676       73.51261
H         84.27726       -4.62498       74.56640
H         82.84020       -4.44912       76.50512
H         81.66343       -3.42237       75.59552
H         83.45106       -1.70852       75.23269
H         84.67034       -2.77827       76.02335
H         83.44506       -2.66543       78.06598
H         83.84146       -1.10810       77.51779
H         82.24212       -1.67643       77.35762
N         82.08856       -5.60671       70.97668
C         82.21956       -4.95930       69.67481
C         82.74774       -5.91637       68.60477
O         83.80792       -5.62435       68.07034
C         80.90888       -4.25718       69.23630
C         81.10331       -3.34303       68.01126
C         82.04610       -2.20696       68.30616
O         83.07243       -2.07328       67.65925
O         81.76141       -1.33213       69.29053
H         81.16129       -5.66380       71.42483
H         82.95955       -4.13934       69.81406
H         80.53595       -3.62993       70.07511
H         80.11446       -4.98903       68.99978
H         80.12267       -2.90566       67.72821
H         81.47374       -3.93936       67.14881
N         82.11278       -7.05621       68.19270
C         80.87810       -7.59758       68.72356
H         80.11295       -7.62328       67.91843
H         81.05746       -8.63564       69.07259
H         80.47888       -7.03324       69.58100
H         82.54721       -7.59844       67.42973
Ca        85.45384      -11.93672       57.92592
O         84.94050      -15.17672       57.99772
H         84.31705      -15.89559       58.27038
H         85.81546      -15.45543       58.36808

Ca 1.0



