%chk=apoCaM-CA-Ng.loop3.water3.frame746.chk
%nprocshared=20
%mem=10GB
%nosave
#b3lyp/svp scf=(tight,noincore,xqc) Test 
#IOP(5/87=12) Density=Current Pop=(MK,readradii) iop(6/33=2) iop(6/42=6)

apoCaM-CA-Ng.loop3.water3.frame746 

   0  1 
C         94.30757        7.59531      -13.75699
C         95.08971        6.86212      -14.80299
O         95.50713        7.46407      -15.78248
H         93.30195        7.13710      -13.65552
H         94.83984        7.52008      -12.78437
H         94.19673        8.66744      -14.02162
N         95.35047        5.53947      -14.63401
C         96.15831        4.76469      -15.56216
C         95.46637        4.65283      -16.91268
O         94.33396        4.19317      -16.96180
C         96.45688        3.37971      -14.94837
C         97.54579        2.65682      -15.67728
O         98.05214        1.66080      -15.18572
O         98.04255        3.15986      -16.81733
H         94.99824        5.08271      -13.77770
H         97.13927        5.28374      -15.66532
H         95.54299        2.75401      -14.86548
H         96.85512        3.55710      -13.92539
N         96.09712        5.05962      -18.05382
C         95.46757        5.02703      -19.37352
C         94.99588        3.62606      -19.73550
O         93.91745        3.50039      -20.29900
C         96.38113        5.59587      -20.49158
C         96.83792        7.04157      -20.20438
C         97.48026        7.70819      -21.43010
C         97.97305        9.12243      -21.07833
N         98.44063        9.83588      -22.26665
H         97.06007        5.41009      -17.97292
H         94.57263        5.68844      -19.34256
H         95.78236        5.59713      -21.43044
H         97.27394        4.95179      -20.65212
H         97.56403        7.04460      -19.36494
H         95.95621        7.65409      -19.91539
H         96.71407        7.77436      -22.23379
H         98.33723        7.10538      -21.80278
H         98.80129        9.04656      -20.33793
H         97.14634        9.70728      -20.61736
H         99.20679        9.30369      -22.73827
H         97.64441        9.97533      -22.93103
H         98.80256       10.77471      -21.98062
N         95.72986        2.52790      -19.39513
C         95.30411        1.15440      -19.65014
C         95.06629        0.38142      -18.35295
O         93.99637       -0.19779      -18.22335
C         96.25146        0.42463      -20.63386
C         97.72606        0.34372      -20.32644
O         98.28123        0.96055      -19.27078
O         98.44901       -0.26814      -21.09558
H         96.62154        2.67968      -18.90857
H         94.32524        1.14564      -20.18275
H         96.16944        0.93220      -21.61936
H         95.86563       -0.61144      -20.75898
N         95.98854        0.33709      -17.34728
C         95.80949       -0.42703      -16.11568
C         96.92028       -1.43854      -15.87898
O         96.77909       -2.22927      -14.95630
H         96.84156        0.88868      -17.44197
H         94.85155       -0.98957      -16.14667
H         95.75766        0.26053      -15.24668
N         98.03114       -1.50486      -16.67205
C         99.01058       -2.58301      -16.61364
C        100.41808       -2.07939      -16.33454
O        100.88389       -1.16288      -16.99686
C         98.98741       -3.30570      -17.97054
C         97.62621       -3.90740      -18.22174
N         96.85623       -3.47934      -19.24847
O         97.20877       -4.78204      -17.47691
H         98.16697       -0.81678      -17.42217
H         98.74531       -3.33226      -15.83509
H         99.74536       -4.11826      -17.99030
H         99.24311       -2.57863      -18.77360
H         97.18109       -2.73240      -19.87876
H         95.92250       -3.88701      -19.40429
N        101.19053       -2.72813      -15.41703
C        102.59588       -2.44318      -15.18306
C        102.81746       -1.10041      -14.53848
O        102.25588       -0.84599      -13.48248
H        100.78950       -3.53120      -14.90949
H        103.15917       -2.53687      -16.13869
H        103.00002       -3.20919      -14.48728
N        103.68321       -0.20915      -15.09614
C        103.99404        1.08996      -14.50232
C        102.79228        2.00770      -14.51984
O        101.73052        1.61533      -14.98496
C        105.14641        1.76395      -15.29544
C        106.43185        0.99164      -15.18408
C        107.04054        0.82286      -13.92902
C        107.04356        0.45113      -16.32518
C        108.23733        0.11544      -13.81546
C        108.24349       -0.25654      -16.20940
C        108.84321       -0.42847      -14.95635
O        109.99940       -1.11395      -14.85993
H        104.16904       -0.48366      -15.96457
H        104.31198        0.95302      -13.44671
H        105.36891        2.78093      -14.91429
H        104.83557        1.87721      -16.35658
H        106.59112        1.24249      -13.03740
H        106.59340        0.57702      -17.30231
H        108.69191       -0.00622      -12.84047
H        108.70746       -0.67058      -17.09516
H        110.44222       -1.25402      -14.01073
N        102.92504        3.29063      -14.06618
C        101.91610        4.33619      -14.19016
C        101.64120        4.67239      -15.69513
O        102.07250        3.63888      -16.54037
C        100.61034        4.00651      -13.40362
C         99.66002        5.23533      -13.29282
C        100.91415        3.44204      -12.00061
C        100.22204        6.43565      -12.50973
H        103.81691        3.57277      -13.63425
H        102.35439        5.23311      -13.70793
H        100.05763        3.21140      -13.94762
H         98.72792        4.91218      -12.77966
H         99.37667        5.58177      -14.30860
H        101.47393        2.48671      -12.07561
H        101.52245        4.14582      -11.39716
H         99.96779        3.22192      -11.46135
H        101.10958        6.87555      -13.00592
H         99.45221        7.23272      -12.45095
H        100.48854        6.15559      -11.46977
N        102.27576        5.91928      -16.12759
C        101.97144        6.24402      -17.54182
C        103.08219        7.07210      -18.16016
O        103.01747        7.33006      -19.35495
C        100.61034        6.96035      -17.68010
O         99.57127        6.17362      -17.16622
H        101.99095        6.71135      -15.50454
H        101.93946        5.31749      -18.15577
H        100.39573        7.20758      -18.74529
H        100.63094        7.92144      -17.12364
H         99.43544        5.43281      -17.81224
N        104.14027        7.51936      -17.42361
C        105.22490        8.30083      -18.00246
C        106.08454        7.46450      -18.94327
O        106.08935        6.24933      -18.79996
C        106.12262        8.81864      -16.87937
H        104.16667        7.33218      -16.41099
H        104.76976        9.16295      -18.53355
H        106.53312        7.97263      -16.28707
H        106.97385        9.37222      -17.29889
H        105.54185        9.48324      -16.20464
N        106.87676        8.01178      -19.91776
C        106.81215        9.40467      -20.35590
C        108.12793        9.85694      -20.98925
O        108.60546        9.15812      -21.87296
C        105.71183        9.51347      -21.41620
H        107.39508        7.34932      -20.51699
H        106.52243       10.07217      -19.52880
H        105.93592        8.85579      -22.28430
H        104.73422        9.20514      -20.98990
H        105.62397       10.56224      -21.77119
N        108.75262       11.04031      -20.69304
C        108.27691       12.02608      -19.72924
C        108.34872       11.51778      -18.30589
O        107.39362       11.71278      -17.56764
C        108.96375       13.41370      -19.85753
C        110.40621       13.62791      -19.34744
C        111.50275       13.01301      -20.17558
O        111.67216       11.68083      -20.23265
O        112.30012       13.73666      -20.75131
H        109.57455       11.28156      -21.26249
H        107.21571       12.25119      -19.98421
H        108.34280       14.10017      -19.23747
H        108.88080       13.77402      -20.90650
H        110.50227       13.31141      -18.28814
H        110.56721       14.72981      -19.36569
N        109.45196       10.85388      -17.85702
C        109.58510       10.32167      -16.51687
H        110.47422       10.77198      -16.02921
H        108.69443       10.52659      -15.88771
H        109.72766        9.22151      -16.57575
H        110.23820       10.69226      -18.49935
Ca       100.15809        2.74227      -17.26119
O        100.40834        3.68732      -20.08865
H        101.31279        3.49735      -20.44390
H         99.79059        3.37063      -20.79439
O        103.08841        2.01860      -18.70434
H        103.57804        1.22226      -18.37846
H        103.68331        2.78215      -18.49631
O        101.31849       -0.00141      -19.86950
H        100.54607       -0.42990      -19.42517
H        101.94207       -0.74858      -20.04903

Ca 1.0



