%chk=apoCaM-CA-Ng.loop2.water3.frame1037.chk
%nprocshared=20
%mem=10GB
%nosave
#b3lyp/svp scf=(tight,noincore,xqc) Test 
#IOP(5/87=12) Density=Current Pop=(MK,readradii) iop(6/33=2) iop(6/42=6)

apoCaM-CA-Ng.loop2.water3.frame1037 

   -2  1 
C         10.31626       52.82408       63.73214
C          9.60856       52.45855       62.45623
O          9.33819       51.28242       62.26204
H         11.29564       53.29246       63.49933
H          9.69224       53.52586       64.32423
H         10.50263       51.91884       64.34859
N          9.26161       53.38069       61.51219
C          9.52587       54.81712       61.61264
C         10.45539       55.28427       60.50482
O         10.77130       54.51353       59.60922
C          8.19918       55.61268       61.63340
C          7.34003       55.45382       60.40393
O          6.25637       56.01175       60.35479
O          7.73852       54.69103       59.36868
H          8.78731       53.02428       60.67019
H         10.04792       55.04330       62.56330
H          8.41280       56.69405       61.77264
H          7.60798       55.27005       62.51041
N         10.96984       56.54902       60.54820
C         11.94645       57.09775       59.60958
C         11.40548       57.35783       58.20805
O         12.17399       57.85674       57.39635
C         13.22236       56.24118       59.58335
H         10.70294       57.15334       61.34049
H         12.24948       58.09672       59.99691
H         13.04158       55.23617       59.15363
H         14.00462       56.73650       58.96998
H         13.61756       56.12604       60.61542
N         10.10056       57.14274       57.86099
C          9.56441       57.53048       56.55086
C          8.03827       57.52133       56.51735
O          7.40284       57.06439       57.45758
C         10.16823       56.68191       55.40543
C          9.88941       55.21099       55.55870
O         10.81426       54.42239       55.67361
O          8.62429       54.75098       55.54448
H          9.45765       56.78172       58.57660
H          9.84284       58.59625       56.38887
H         11.26668       56.83592       55.36957
H          9.76827       57.02422       54.42748
N          7.38253       58.11908       55.48081
C          5.94271       58.31582       55.47022
C          5.15878       57.05767       55.16388
O          5.31445       56.06159       55.84946
H          7.93577       58.57426       54.73864
H          5.69348       59.09079       54.71420
H          5.62784       58.72408       56.45565
N          4.22279       57.07065       54.17299
C          3.31825       55.95784       53.90084
C          4.06505       54.72925       53.40133
O          4.87951       54.83716       52.49536
C          2.23421       56.39557       52.89353
C          1.18164       55.33153       52.68819
N          0.42393       54.89244       53.72289
O          1.00483       54.86888       51.57172
H          4.09386       57.94394       53.63834
H          2.78627       55.71427       54.84636
H          2.71018       56.66019       51.92401
H          1.72106       57.30259       53.28432
H          0.54460       55.27432       54.67229
H         -0.29349       54.16723       53.57566
N          3.77787       53.50771       53.93244
C          4.43761       52.26632       53.55608
C          5.82900       52.22207       54.14747
O          5.93822       52.57918       55.31086
H          3.02921       53.44341       54.63914
H          4.36614       52.10360       52.46388
H          3.88217       51.43835       54.04650
N          6.95237       51.77934       53.51000
C          7.05156       51.18889       52.17766
C          7.59127       49.76602       52.29205
O          6.97440       48.85641       51.75607
C          7.98885       52.04617       51.29748
C          8.11537       51.47413       49.87595
O          7.47504       53.35031       51.22359
H          7.82667       51.84405       54.05287
H          6.06919       51.14583       51.66987
H          8.99894       52.06680       51.77110
H          8.23278       53.94426       50.98084
H          8.79138       52.11257       49.26961
H          8.54337       50.44916       49.89309
H          7.12069       51.43868       49.38192
N          8.74983       49.51273       52.97291
C          9.39695       48.20241       53.05650
C          8.41780       47.12043       53.49997
O          7.87976       47.22565       54.59184
C         10.66629       48.24803       53.98468
C         10.34461       48.67520       55.45441
C         11.73608       49.16379       53.35962
C         11.55410       48.69921       56.39000
H          9.20750       50.30555       53.43623
H          9.74611       47.94988       52.03795
H         11.09742       47.22166       54.00459
H          9.63730       47.96016       55.91248
H          9.87909       49.68246       55.47906
H         12.69676       49.08552       53.90750
H         11.93004       48.85234       52.31543
H         11.42335       50.22712       53.35280
H         12.03724       47.70056       56.42483
H         12.29199       49.46542       56.07906
H         11.21546       48.96501       57.41509
N          8.06802       46.05830       52.71325
C          8.52281       45.79711       51.34452
C          9.99924       45.40455       51.29606
O         10.43503       44.65026       52.15324
C          7.66402       44.64856       50.74907
C          7.80493       44.42825       49.26138
O          8.52347       45.13262       48.57192
O          7.08002       43.45860       48.67276
H          7.36637       45.41209       53.11115
H          8.31466       46.69267       50.71864
H          6.59112       44.88817       50.91583
H          7.89334       43.70073       51.28323
N         10.78969       45.80537       50.25266
C         12.16926       45.35189       50.01644
C         12.66673       45.94129       48.69181
O         11.93443       45.80373       47.71890
C         12.25877       43.80325       49.90952
C         13.70258       43.35026       49.88314
C         14.40492       43.22864       48.67153
C         14.37245       43.08402       51.09226
C         15.75278       42.85076       48.67316
C         15.71799       42.70549       51.08829
C         16.40846       42.59089       49.87991
H         10.36373       46.44180       49.56206
H         12.79576       45.65023       50.87636
H         11.70085       43.41633       49.02879
H         11.79291       43.31168       50.78417
H         13.91463       43.43777       47.72964
H         13.85521       43.17945       52.03910
H         16.29265       42.76644       47.73906
H         16.22698       42.50730       52.02317
H         17.45237       42.30391       49.87979
N         13.89138       46.53311       48.50717
C         14.97908       46.61106       49.47258
C         14.80635       47.78334       50.43306
O         13.85066       47.76128       51.19047
C         16.21506       46.66898       48.55757
C         15.71855       47.53354       47.41458
C         14.33315       46.94814       47.18518
H         15.07725       45.68789       50.07743
H         17.16908       46.96647       49.03922
H         16.38058       45.65177       48.13293
H         15.59972       48.57438       47.78196
H         16.36042       47.55176       46.50835
H         13.66286       47.69895       46.71293
H         14.39620       46.04122       46.54220
N         15.69395       48.82260       50.49909
C         15.60082       49.89522       51.48121
C         16.94406       50.06471       52.19800
O         17.51804       51.14193       52.12962
C         15.09012       51.18564       50.78986
C         15.92067       51.65922       49.57811
C         15.35979       52.91100       48.95629
O         15.91022       53.39415       47.98017
O         14.25990       53.50944       49.45646
H         16.48251       48.87677       49.84296
H         14.84403       49.66109       52.26168
H         15.03620       51.99625       51.54990
H         14.05535       50.98638       50.43172
H         15.92695       50.86935       48.79873
H         16.96696       51.86715       49.87706
N         17.54350       49.07061       52.91913
C         17.00604       47.74654       53.15564
H         16.00013       47.60093       52.73534
H         17.69172       46.98807       52.72219
H         16.93021       47.57547       54.24926
H         18.46215       49.26917       53.34563
Ca         6.38498       54.21919       57.64151
O          4.74542       51.94339       58.84763
H          5.45811       51.81073       59.52219
H          4.29091       52.77694       59.12886
O          8.34370       51.64684       57.29296
H          9.04773       51.59305       57.98716
H          7.85400       50.78943       57.36814
O          3.97584       56.09152       58.43443
H          3.81961       55.31861       59.03278
H          3.34702       55.95332       57.68249

Ca 1.0



