%chk=apoCaM-CA-Ng.loop1.water5.frame1019.chk
%nprocshared=20
%mem=10GB
%nosave
#b3lyp/svp scf=(tight,noincore,xqc) Test 
#IOP(5/87=12) Density=Current Pop=(MK,readradii) iop(6/33=2) iop(6/42=6)

apoCaM-CA-Ng.loop1.water5.frame1019 

   0  1 
C         41.95727       24.75805       67.80016
C         41.98970       26.26315       67.84199
O         42.41010       26.87586       66.87156
H         41.30539       24.42081       66.96615
H         42.98033       24.35795       67.64592
H         41.55308       24.33150       68.74367
N         41.52327       26.92830       68.93492
C         41.45300       28.38586       69.03282
C         42.85294       28.99436       69.09544
O         43.70703       28.44107       69.77512
C         40.61551       28.76687       70.27081
C         40.11502       30.18711       70.27132
O         39.31281       30.59338       71.27188
O         40.36489       30.95529       69.35581
H         41.14811       26.36455       69.71421
H         40.89319       28.75618       68.14393
H         41.18829       28.54985       71.19840
H         39.69641       28.14213       70.27311
N         43.17071       30.10765       68.37157
C         44.54253       30.59081       68.22938
C         45.21015       31.18098       69.48543
O         46.43328       31.13315       69.48298
C         44.72878       31.56304       67.03637
C         44.52175       30.95477       65.63265
C         43.08539       30.53361       65.29432
C         42.94650       30.21158       63.80107
N         41.59869       29.73732       63.49056
H         42.42454       30.55711       67.82550
H         45.15539       29.69984       67.96005
H         45.78925       31.90146       67.04341
H         44.10542       32.47159       67.14867
H         45.20764       30.09293       65.48240
H         44.82484       31.73825       64.91588
H         42.38489       31.36441       65.53529
H         42.81529       29.62884       65.87554
H         43.68164       29.43074       63.50746
H         43.15792       31.13369       63.21413
H         40.88553       30.41925       63.82743
H         41.50242       29.62794       62.45524
H         41.43069       28.81354       63.95026
N         44.61854       31.76150       70.58034
C         43.19981       32.02583       70.81941
C         42.93748       32.51636       72.25240
O         43.86800       32.81361       72.99085
C         42.66309       33.08928       69.82849
C         43.45755       34.37208       69.89587
O         43.54163       34.99344       70.93999
O         44.09647       34.85139       68.81710
H         45.28009       32.05294       71.31637
H         42.65288       31.07240       70.73159
H         41.59685       33.31175       70.04737
H         42.69549       32.70341       68.79886
N         41.65767       32.60815       72.71446
C         41.32967       33.06265       74.05521
C         41.26890       34.57219       74.17530
O         41.04538       35.04366       75.28026
H         40.88611       32.29404       72.11301
H         42.04314       32.62325       74.78656
H         40.31760       32.69074       74.32539
N         41.38906       35.39213       73.08616
C         41.25038       36.84429       73.12557
C         39.86116       37.21057       73.62286
O         39.75392       37.86164       74.65412
C         42.37508       37.49855       73.97130
C         43.74059       37.22070       73.41264
O         44.65850       36.57929       74.16072
O         44.03359       37.59942       72.28977
H         41.52585       34.97470       72.16037
H         41.34542       37.24963       72.09613
H         42.33231       37.14485       75.02281
H         42.23365       38.60163       73.98335
N         38.71930       36.82392       72.98150
C         38.63493       36.08372       71.72695
C         39.04988       36.91779       70.53529
O         38.72967       38.09746       70.51152
H         37.82145       37.07478       73.42490
H         37.56115       35.85437       71.55710
H         39.15437       35.10492       71.77796
N         39.65587       36.34577       69.44906
C         39.99878       37.11518       68.24950
C         40.40020       36.20852       67.08632
O         41.24304       35.34074       67.26664
C         41.12503       38.14032       68.55652
C         41.40407       39.05714       67.36023
O         42.31271       37.48435       68.91481
H         39.83139       35.32944       69.46400
H         39.09885       37.68732       67.93277
H         40.80611       38.82032       69.37840
H         42.26830       37.31487       69.89072
H         40.47844       39.59330       67.06136
H         42.17234       39.80951       67.63134
H         41.77875       38.48347       66.49052
N         39.88852       36.43929       65.83144
C         40.28374       35.73099       64.60547
C         41.77201       35.92963       64.32315
O         42.47474       36.44885       65.17502
C         39.77243       34.25210       64.65023
C         38.21699       34.20280       64.69137
C         40.28686       33.35823       63.51142
C         37.51412       34.69728       63.41408
H         39.21490       37.21111       65.71660
H         39.79234       36.24031       63.75238
H         40.14463       33.78444       65.58681
H         37.84824       34.79922       65.55243
H         37.89837       33.15104       64.85867
H         39.83465       32.35191       63.60013
H         40.02399       33.76112       62.51305
H         41.38675       33.23237       63.58379
H         37.79396       34.08096       62.53476
H         36.41540       34.61051       63.53992
H         37.73954       35.75973       63.19642
N         42.31347       35.61900       63.10786
C         43.71072       35.87967       62.78606
C         43.81416       36.83781       61.61856
O         44.60126       36.59959       60.71251
C         44.48476       34.55093       62.58409
C         43.94178       33.67832       61.44163
O         44.42359       33.80787       63.76931
H         41.71660       35.22866       62.36742
H         44.20872       36.40339       63.62968
H         45.55205       34.77460       62.34644
H         45.06354       34.22145       64.40616
H         43.99056       34.20341       60.46683
H         44.55172       32.75353       61.35957
H         42.89190       33.37529       61.62920
N         43.05115       37.97137       61.58130
C         43.21899       38.96705       60.53115
C         44.51396       39.69686       60.83171
O         44.54513       40.49766       61.75619
C         41.99752       39.91338       60.45442
C         42.14125       40.93980       59.32917
O         40.83822       39.15628       60.20574
H         42.34991       38.12949       62.32099
H         43.27347       38.43357       59.55426
H         41.89160       40.47637       61.41272
H         40.40095       38.98076       61.07961
H         42.24343       40.42650       58.34878
H         41.23811       41.58589       59.29768
H         43.02795       41.58640       59.49428
N         45.65969       39.32544       60.19373
C         47.00834       39.74562       60.56924
C         47.34941       39.35546       62.00667
O         46.46654       39.01122       62.77998
C         47.25758       41.24802       60.32604
C         47.05261       41.62880       58.85288
C         47.45032       43.08853       58.59964
C         47.26686       43.46161       57.12235
N         47.70420       44.83449       56.87051
H         45.59200       38.62199       59.44265
H         47.70956       39.17581       59.91840
H         48.31128       41.47398       60.60095
H         46.59563       41.86676       60.96965
H         45.98807       41.47264       58.57136
H         47.69079       40.97553       58.21792
H         48.51988       43.22304       58.87469
H         46.83183       43.76329       59.23113
H         46.19449       43.35742       56.84418
H         47.86357       42.77015       56.48625
H         47.55769       45.06067       55.86020
H         47.15034       45.50372       57.45267
H         48.72195       44.93221       57.09240
N         48.65040       39.33844       62.41384
C         49.06794       38.99312       63.77151
C         48.43839       37.68851       64.26322
O         47.77444       37.75202       65.28699
C         50.61342       38.97185       63.87883
C         51.11236       38.65664       65.30137
C         52.61597       38.63206       65.40279
O         53.19152       38.35064       66.58676
O         53.32332       38.85212       64.43113
H         49.37771       39.56851       61.71883
H         48.71078       39.80407       64.44781
H         50.99998       39.97038       63.57652
H         51.04196       38.22009       63.18769
H         50.74180       37.65642       65.61188
H         50.71983       39.41802       66.00860
N         48.55777       36.47330       63.65331
C         49.24648       36.20122       62.41087
H         50.06443       35.47547       62.59957
H         48.52732       35.75321       61.69402
H         49.66785       37.09888       61.93249
H         48.10056       35.66488       64.10401
Ca        45.22243       36.77137       69.21174
O         46.71374       35.30991       71.50074
H         46.35863       36.10343       71.97385
H         46.20068       34.54971       71.87334
O         46.67910       39.05274       70.71600
H         46.98018       38.61926       71.55354
H         47.42919       39.64509       70.45783
O         45.11237       37.07863       66.22033
H         44.91498       37.95896       65.81333
H         44.32938       36.89514       66.79611
O         44.87950       39.75735       68.24728
H         44.68537       40.05131       67.32205
H         44.64051       40.53566       68.81066
O         47.91686       36.77402       68.13212
H         47.53959       37.68297       68.01949
H         48.87894       36.92535       68.30569

Ca 1.0



