%chk=apoCaM-CA-Ng.loop3.water4.frame314.chk
%nprocshared=20
%mem=10GB
%nosave
#b3lyp/svp scf=(tight,noincore,xqc) Test 
#IOP(5/87=12) Density=Current Pop=(MK,readradii) iop(6/33=2) iop(6/42=6)

apoCaM-CA-Ng.loop3.water4.frame314 

   0  1 
C         61.14143       59.82169       34.73882
C         62.04049       58.65147       34.47895
O         62.10987       58.19718       33.34793
H         60.37264       59.53514       35.48720
H         61.73658       60.67175       35.13201
H         60.62851       60.14131       33.80621
N         62.76314       58.11070       35.50397
C         63.66214       56.96049       35.40113
C         62.93287       55.63674       35.17093
O         63.61057       54.62104       35.11724
C         64.75943       57.17780       34.32679
C         65.57851       58.42741       34.52562
O         66.46165       58.69637       33.72717
O         65.35929       59.25347       35.56736
H         62.68866       58.55885       36.43034
H         64.17619       56.84688       36.38170
H         64.30167       57.21382       33.32189
H         65.45662       56.31221       34.33377
N         61.57404       55.55491       35.03159
C         60.86807       54.29721       34.78724
C         60.35926       54.22849       33.35352
O         59.88448       53.17538       32.94691
C         59.70631       54.15180       35.78954
C         60.20115       54.14745       37.24356
C         59.02952       54.07359       38.22993
C         59.53752       54.03694       39.67782
N         58.42427       53.98134       40.62446
H         61.00051       56.40617       35.07445
H         61.56262       53.43710       34.90296
H         59.15672       53.20506       35.59260
H         59.00114       55.00112       35.64391
H         60.77344       55.07823       37.45067
H         60.87325       53.27435       37.39193
H         58.43032       53.15891       38.02935
H         58.37794       54.96515       38.09195
H         60.14733       54.94491       39.88431
H         60.18289       53.14135       39.81833
H         58.80516       53.93879       41.59737
H         57.83031       54.83723       40.53113
H         57.84500       53.12811       40.45043
N         60.44377       55.30151       32.52042
C         60.08814       55.27572       31.11169
C         61.11220       54.43855       30.35891
O         62.28501       54.51155       30.69752
C         60.07928       56.73351       30.58911
C         59.48854       56.85792       29.21836
O         60.12495       57.37310       28.31650
O         58.22372       56.45464       28.99503
H         60.78631       56.19401       32.89138
H         59.05561       54.87749       30.99619
H         61.10474       57.16473       30.62353
H         59.43476       57.34570       31.25685
N         60.76030       53.62787       29.32208
C         61.74996       52.87816       28.55269
C         62.71129       53.75535       27.74906
O         63.65132       53.20981       27.18960
H         59.76503       53.53173       29.07765
H         61.23649       52.20003       27.83795
H         62.33388       52.24805       29.25883
N         62.53856       55.10499       27.63316
C         63.44569       56.01008       26.92640
C         64.00047       57.08035       27.87226
O         64.70818       57.96211       27.40770
C         62.67382       56.70921       25.78412
C         62.14279       55.74284       24.75756
N         62.98241       55.00422       23.99633
O         60.93765       55.64181       24.59544
H         61.71195       55.53256       28.06240
H         64.30958       55.46111       26.49231
H         63.33443       57.42975       25.25743
H         61.82843       57.28436       26.22237
H         64.00344       55.08775       24.10159
H         62.60817       54.35758       23.28575
N         63.71152       57.08247       29.20748
C         64.11633       58.11917       30.14214
C         63.34695       59.41737       29.97542
O         63.60199       60.34031       30.73565
H         63.17991       56.31225       29.60653
H         65.21239       58.28551       30.06869
H         63.89057       57.76649       31.16725
N         62.40030       59.57220       29.00857
C         61.71008       60.82494       28.74749
C         61.23740       60.79706       27.31666
O         60.36111       60.01192       26.97974
C         60.53802       61.05548       29.72370
C         59.71039       62.26046       29.32142
C         60.28870       63.53875       29.24269
C         58.35153       62.10460       28.99140
C         59.52458       64.63682       28.83395
C         57.58930       63.20414       28.58647
C         58.17508       64.47479       28.50398
O         57.45442       65.54311       28.10676
H         62.23008       58.79953       28.35444
H         62.44526       61.65424       28.83909
H         60.92568       61.18523       30.75600
H         59.89414       60.14738       29.71776
H         61.33293       63.68463       29.48559
H         57.88041       61.13079       29.03928
H         59.98411       65.61476       28.76815
H         56.54566       63.06602       28.33189
H         56.51954       65.47304       27.86560
N         61.86791       61.57489       26.40052
C         61.60247       61.48363       24.98337
C         62.69264       60.62594       24.38639
O         62.36905       59.60252       23.80557
C         61.48161       62.89565       24.34950
C         60.41364       63.76709       25.06567
C         61.17967       62.81297       22.84141
C         58.98840       63.19932       25.04113
H         62.65832       62.16431       26.70453
H         60.64469       60.95994       24.79789
H         62.45757       63.41790       24.46679
H         60.39856       64.77315       24.59313
H         60.70848       63.90786       26.12721
H         61.12774       63.83255       22.40396
H         61.96927       62.26061       22.30494
H         60.22450       62.28766       22.64724
H         58.93718       62.22550       25.56820
H         58.30551       63.90020       25.56309
H         58.61650       63.07758       24.00398
N         64.01371       60.92764       24.53721
C         65.04205       60.09885       23.92180
C         64.95069       60.21212       22.40970
O         65.30249       59.26511       21.72092
C         66.45079       60.48109       24.40909
O         66.52914       60.46146       25.81125
H         64.28984       61.75085       25.09301
H         64.87018       59.04235       24.23089
H         66.69848       61.50694       24.06669
H         67.20994       59.78494       23.98505
H         66.23515       59.56371       26.11261
N         64.45799       61.35437       21.83365
C         64.29216       61.57343       20.40291
C         63.26882       60.63977       19.74957
O         63.21587       60.61363       18.52918
C         65.65930       61.53973       19.70674
H         64.20101       62.14322       22.44387
H         63.90574       62.60567       20.24811
H         65.55124       61.82816       18.63998
H         66.33409       62.28010       20.19030
H         66.13055       60.53894       19.75721
N         62.38939       59.88969       20.48488
C         61.41725       58.96947       19.89495
C         59.98017       59.33462       20.24725
O         59.75660       60.20616       21.07365
C         61.72210       57.55648       20.40088
H         62.40465       59.96269       21.50359
H         61.50249       58.98086       18.78817
H         62.76061       57.27510       20.12799
H         61.63043       57.51654       21.50870
H         61.02591       56.81281       19.96134
N         58.94694       58.68625       19.61799
C         57.51761       58.87408       19.89125
C         56.99751       60.28793       19.63307
O         55.81537       60.50313       19.86773
C         57.17908       58.45290       21.33436
C         57.53124       56.98789       21.63207
C         57.30837       56.72670       23.08927
O         56.20742       56.88408       23.59323
O         58.36282       56.42473       23.86239
H         59.18539       57.98183       18.90426
H         56.94285       58.20018       19.21592
H         56.08812       58.58081       21.51711
H         57.71499       59.12008       22.03765
H         58.60439       56.80749       21.40658
H         56.91734       56.29890       21.01245
N         57.78177       61.29637       19.15249
C         57.29943       62.65079       18.96286
H         56.23719       62.77477       19.26310
H         57.91049       63.34303       19.57968
H         57.39816       62.93341       17.89508
H         58.76330       61.12447       18.90405
Ca        58.32031       56.91017       26.05692
O         59.07346       54.33157       26.80006
H         59.33952       53.64156       26.14373
H         58.16609       54.06643       27.09506
O         57.44348       59.81603       26.49303
H         57.15755       60.35482       25.71343
H         56.62654       59.71858       27.04358
O         55.71425       55.98578       26.92836
H         56.04873       55.54721       26.10572
H         55.20390       56.76842       26.60095
O         59.82731       58.67149       24.15914
H         59.19660       59.33427       23.78433
H         60.20813       58.21552       23.36752

Ca 1.0



