%chk=apoCaM-CA-Ng.loop4.water7.frame574.chk
%nprocshared=20
%mem=10GB
%nosave
#b3lyp/svp scf=(tight,noincore,xqc) Test 
#IOP(5/87=12) Density=Current Pop=(MK,readradii) iop(6/33=2) iop(6/42=6)

apoCaM-CA-Ng.loop4.water7.frame574 

   -3  1 
C         41.66187        4.06406       57.83997
C         40.99194        3.27198       56.75705
O         41.64336        2.41977       56.17724
H         42.53150        4.61045       57.41808
H         40.96621        4.79802       58.29637
H         42.01873        3.37317       58.63340
N         39.68122        3.48570       56.44276
C         38.93739        2.74348       55.42674
C         38.93293        1.26655       55.75734
O         39.27401        0.46186       54.90510
C         39.48261        3.02171       54.00028
C         39.34736        4.46106       53.58419
O         38.76553        5.36858       54.39150
O         39.74605        4.80918       52.48526
H         39.16090        4.20003       56.97345
H         37.87700        3.07725       55.45543
H         38.91533        2.41331       53.26213
H         40.54924        2.71962       53.93361
N         38.54120        0.84179       56.99249
C         38.55945       -0.56232       57.39827
C         37.14024       -1.05442       57.66015
O         36.27631       -0.23775       57.94702
C         39.48990       -0.78542       58.64017
C         39.01807        0.02022       59.88108
C         40.94991       -0.46817       58.27275
C         39.82166       -0.27359       61.14994
H         38.21995        1.54901       57.66897
H         38.95850       -1.16831       56.55956
H         39.45784       -1.85816       58.91903
H         37.96337       -0.24869       60.10119
H         39.07010        1.11121       59.68584
H         41.64071       -0.71471       59.10356
H         41.26754       -1.08912       57.41107
H         41.06968        0.60291       58.01579
H         39.78514       -1.35735       61.38970
H         40.87726        0.04870       61.04664
H         39.38389        0.29234       61.99914
N         36.78665       -2.37109       57.55802
C         37.68220       -3.41875       57.08091
C         37.69222       -3.49141       55.56329
O         38.55951       -4.16990       55.03876
C         37.29647       -4.78145       57.68368
C         37.33812       -4.74144       59.18647
O         36.32832       -4.96431       59.83492
O         38.48992       -4.45823       59.82490
H         35.79731       -2.61883       57.71930
H         38.71813       -3.21056       57.40578
H         38.00365       -5.56545       57.33491
H         36.27433       -5.05931       57.34238
N         36.79277       -2.81266       54.78746
C         36.78455       -2.88350       53.33551
C         36.39525       -4.26116       52.84219
O         35.20994       -4.53261       52.71388
H         36.08490       -2.20872       55.22732
H         37.77397       -2.57427       52.93367
H         36.04124       -2.15918       52.93458
N         37.35573       -5.17063       52.51963
C         37.08579       -6.50910       51.99375
C         37.58412       -7.62057       52.92053
O         37.46756       -8.78325       52.55703
C         37.68756       -6.63195       50.57174
C         39.18220       -6.43317       50.43730
O         39.96714       -6.14297       51.49170
O         39.69227       -6.52361       49.33270
H         38.33527       -4.88700       52.64994
H         35.99070       -6.67058       51.88337
H         37.19282       -5.87433       49.92611
H         37.43459       -7.63555       50.16621
N         38.12499       -7.34637       54.14203
C         38.63774       -8.33998       55.07101
C         39.94449       -8.98305       54.64339
O         40.49980       -9.70706       55.45576
H         38.14414       -6.38072       54.47203
H         37.86520       -9.11207       55.28078
H         38.85611       -7.81864       56.02929
N         40.50401       -8.77633       53.41120
C         41.75924       -9.36357       52.94986
C         42.98205       -8.77058       53.64436
O         44.07161       -9.27890       53.41883
C         41.73462      -10.90952       53.03880
C         40.51715      -11.51523       52.31576
C         40.49781      -13.02490       52.35784
N         39.47448      -13.69870       51.78494
O         41.39554      -13.64777       52.90717
H         40.01440       -8.19712       52.72723
H         41.88189       -9.11496       51.87131
H         41.73422      -11.24374       54.09626
H         42.66138      -11.30360       52.56643
H         40.51923      -11.18996       51.25306
H         39.58394      -11.15047       52.79596
H         38.70582      -13.19212       51.32162
H         39.44776      -14.72891       51.80805
N         42.90001       -7.66190       54.44173
C         44.05710       -7.07239       55.11692
C         44.39535       -5.67489       54.61933
O         45.38640       -5.14528       55.10664
C         43.82978       -7.01395       56.66075
C         42.56519       -6.22091       57.05303
C         43.78708       -8.41395       57.27624
H         41.98928       -7.19990       54.56295
H         44.96932       -7.67854       54.92429
H         44.70320       -6.49856       57.12054
H         42.59073       -5.19592       56.62723
H         41.64057       -6.72862       56.70727
H         42.50022       -6.12724       58.15753
H         44.73635       -8.94821       57.05819
H         43.68585       -8.33612       58.38064
H         42.93613       -9.00158       56.87532
N         43.63360       -4.98726       53.71484
C         43.89046       -3.57907       53.41792
C         44.10133       -3.33708       51.92563
O         43.70128       -4.15453       51.10835
C         42.71716       -2.78199       54.01367
C         42.88752       -1.29425       54.17259
N         41.88704       -0.59702       54.73497
O         43.90707       -0.71237       53.84694
H         42.79452       -5.42365       53.30523
H         44.81246       -3.24896       53.94328
H         42.55513       -3.15604       55.04940
H         41.79726       -2.99586       53.42685
H         41.04017       -1.09125       55.04503
H         41.96961        0.41817       54.86605
N         44.83176       -2.25902       51.52289
C         45.21240       -1.96406       50.13970
C         46.24449       -0.83304       50.09440
O         46.59373       -0.29783       51.13765
C         43.99295       -1.62469       49.23698
C         43.40385       -0.24048       49.44160
C         42.73262        0.11154       50.62371
C         43.51975        0.71744       48.41468
C         42.19026        1.39593       50.77412
C         42.98341        1.99686       48.56802
C         42.31650        2.34198       49.74444
O         41.80141        3.58136       49.86934
H         45.21501       -1.67390       52.26917
H         45.69860       -2.87658       49.73027
H         43.19795       -2.39352       49.32327
H         44.35513       -1.68872       48.18854
H         42.61856       -0.60754       51.42107
H         44.03121        0.47902       47.49034
H         41.66953        1.65446       51.68772
H         43.08589        2.72109       47.76874
H         41.32923        3.86524       50.66302
N         46.76768       -0.39509       48.91557
C         47.70213        0.72100       48.85847
C         47.07399        1.85301       48.07075
O         47.07500        1.75519       46.85025
C         49.02547        0.28923       48.18238
C         49.76048       -0.82926       48.93018
C         51.01740       -1.21027       48.19639
O         50.95678       -1.65295       47.05952
O         52.21755       -1.06884       48.79016
H         46.47681       -0.83899       48.03157
H         47.95728        1.07983       49.86903
H         49.70067        1.17154       48.11303
H         48.80554       -0.06488       47.14970
H         49.11399       -1.72910       49.01207
H         50.01806       -0.47966       49.95290
N         46.49306        2.96502       48.61703
C         46.18593        3.25963       50.02514
C         47.40552        3.30229       50.92500
O         48.34420        4.03223       50.64008
C         45.45124        4.62389       50.06346
C         44.99149        5.13847       51.44345
C         44.23795        6.45029       51.30212
O         44.02504        6.92642       50.19679
O         43.79082        7.12721       52.37933
H         46.15944        3.65488       47.92363
H         45.47864        2.48805       50.40303
H         44.54873        4.52646       49.41980
H         46.11950        5.39479       49.61786
H         45.87770        5.30094       52.09285
H         44.32818        4.38849       51.92120
N         47.42064        2.55745       52.07020
C         48.51427        2.54509       53.01936
H         49.35706        3.19303       52.70363
H         48.14557        2.89944       54.00591
H         48.88740        1.50559       53.13565
H         46.60101        1.97775       52.30484
Ca        44.14407        6.63376       54.55110
O         41.90505        9.35455       53.46501
H         40.95786        9.53238       53.69202
H         42.20212       10.16824       52.98626
O         42.74682        4.22069       54.34849
H         43.42753        3.55966       54.06752
H         42.42618        4.63086       53.50697
O         40.98388        7.02381       55.47584
H         40.53242        7.76216       55.95657
H         40.69866        7.13244       54.53396
O         45.20880        9.72776       54.34735
H         45.24931       10.17313       55.23071
H         44.66914       10.33965       53.78660
O         42.42723        9.95099       56.59609
H         42.87329       10.01955       57.47723
H         41.55215       10.39555       56.72661
O         46.90688        5.82865       55.15273
H         46.93081        6.42332       54.36100
H         46.52835        4.97890       54.81284
O         45.08358        7.91775       57.24970
H         44.70801        8.31126       58.07685
H         45.98054        8.32827       57.16406

Ca 1.0



