%chk=apoCaM-CA-Ng.loop3.water5.frame1045.chk
%nprocshared=20
%mem=10GB
%nosave
#b3lyp/svp scf=(tight,noincore,xqc) Test 
#IOP(5/87=12) Density=Current Pop=(MK,readradii) iop(6/33=2) iop(6/42=6)

apoCaM-CA-Ng.loop3.water5.frame1045 

   0  1 
C         56.71664       69.47022       37.53618
C         58.19277       69.29952       37.35288
O         58.94265       69.52729       38.29245
H         56.20443       68.50438       37.34348
H         56.48548       69.79754       38.57249
H         56.34115       70.23500       36.82522
N         58.68770       68.88381       36.15334
C         60.11352       68.67368       35.93474
C         60.93545       69.94921       36.01372
O         62.14663       69.82136       36.04944
C         60.38190       67.99369       34.57131
C         59.97108       68.79910       33.35853
O         59.39229       70.01037       33.47601
O         60.16916       68.34323       32.24451
H         58.02113       68.66827       35.39582
H         60.46911       67.97847       36.72883
H         59.84898       67.01961       34.54397
H         61.47130       67.79195       34.49161
N         60.36902       71.19406       36.00152
C         61.13353       72.43917       35.93873
C         61.88410       72.54703       34.60668
O         61.41777       73.21458       33.69325
C         60.19800       73.66085       36.13239
C         59.62486       73.74045       37.55897
C         58.72569       74.97501       37.72091
C         58.27980       75.15671       39.17906
N         57.42175       76.33352       39.32149
H         59.34239       71.26894       35.99226
H         61.87418       72.48451       36.76913
H         59.37519       73.63191       35.38360
H         60.78904       74.58934       35.96647
H         60.47622       73.81636       38.27097
H         59.03990       72.82726       37.80324
H         57.83484       74.86811       37.06343
H         59.28768       75.88425       37.41445
H         59.18038       75.28498       39.82097
H         57.72811       74.25483       39.52485
H         57.17301       76.45753       40.32959
H         57.92332       77.19039       38.99173
H         56.54305       76.20538       38.76903
N         63.11067       71.97069       34.47259
C         63.97524       72.08634       33.30057
C         64.34865       70.70950       32.75446
O         63.86816       69.70210       33.25760
C         65.23062       72.88311       33.73522
C         65.94072       72.22483       34.88667
O         66.44199       71.11823       34.76305
O         65.94869       72.82871       36.08730
H         63.50371       71.47450       35.28181
H         63.48002       72.65406       32.48321
H         64.88978       73.88928       34.06273
H         65.94114       73.03732       32.89861
N         65.26953       70.60185       31.75334
C         65.80706       69.33312       31.30127
C         64.90199       68.64780       30.30036
O         64.69132       69.23735       29.25023
H         65.70113       71.45561       31.37271
H         66.12035       68.73846       32.17687
H         66.75124       69.52986       30.74812
N         64.37574       67.39725       30.45670
C         64.43526       66.57693       31.66231
C         63.01969       66.16926       32.06452
O         62.11892       66.26179       31.24211
C         65.32733       65.34310       31.39222
C         66.76971       65.74377       31.20872
N         67.45846       66.31827       32.22484
O         67.32624       65.53435       30.14180
H         63.87599       66.99606       29.64620
H         64.83938       67.15191       32.50676
H         64.95135       64.81271       30.48961
H         65.30590       64.61452       32.22035
H         67.01124       66.48794       33.13816
H         68.44522       66.58996       32.10403
N         62.70545       65.73599       33.31874
C         63.67196       65.64291       34.40241
C         63.08237       65.12273       35.68618
O         61.87094       64.99786       35.81486
H         61.72137       65.47873       33.49249
H         64.13741       66.63106       34.60780
H         64.45550       64.92324       34.11559
N         63.93007       64.71068       36.66671
C         63.47790       64.04717       37.87863
C         64.18221       64.62187       39.09892
O         65.09492       65.42561       38.94734
C         63.78499       62.54243       37.68834
C         63.22794       61.63070       38.74833
C         64.08370       60.81356       39.50469
C         61.84190       61.56517       38.96783
C         63.56029       59.94747       40.46852
C         61.32144       60.70170       39.93418
C         62.17985       59.88830       40.68762
O         61.69030       59.04665       41.61956
H         64.94628       64.75423       36.48357
H         62.38228       64.18737       37.99898
H         64.88712       62.41428       37.59648
H         63.33619       62.21326       36.72462
H         65.15456       60.84062       39.34523
H         61.16375       62.17887       38.38839
H         64.22896       59.31938       41.04316
H         60.25123       60.66309       40.09224
H         60.74189       58.97468       41.79855
N         63.81639       64.23791       40.35451
C         64.54671       64.65309       41.55383
C         65.98612       64.14813       41.52245
O         66.35196       63.39024       40.63440
C         63.83355       64.21161       42.87591
C         62.59683       65.10248       43.13670
C         63.49696       62.70338       42.90893
C         61.96649       64.87139       44.51188
H         62.99298       63.63237       40.44355
H         64.61569       65.76410       41.55368
H         64.52957       64.41255       43.71718
H         61.83272       64.96493       42.34267
H         62.92938       66.16467       43.11814
H         62.69641       62.43920       42.18916
H         64.39680       62.09501       42.68424
H         63.13449       62.40217       43.91183
H         61.52889       63.85620       44.58831
H         62.72669       65.00741       45.31184
H         61.15335       65.60936       44.67466
N         66.87129       64.58541       42.46560
C         68.29018       64.24638       42.46611
C         69.12302       65.51018       42.32117
O         68.56664       66.59902       42.34063
C         68.63654       63.48005       43.74961
O         68.33918       64.25961       44.87827
H         66.53640       65.22749       43.19976
H         68.53184       63.59401       41.59916
H         69.71306       63.20620       43.76369
H         68.03317       62.54165       43.75426
H         68.11923       63.62813       45.61198
N         70.47472       65.42974       42.12994
C         71.34198       66.58295       41.89046
C         71.47900       67.51092       43.09076
O         72.09888       68.55400       42.93433
C         70.89603       67.34212       40.62576
H         70.91154       64.49670       42.09716
H         72.36855       66.21177       41.67682
H         69.89328       67.79812       40.73018
H         71.61207       68.15876       40.39265
H         70.87662       66.64706       39.76011
N         70.98192       67.19320       44.32550
C         71.11661       68.05034       45.49837
C         70.40267       69.36229       45.25954
O         71.02225       70.41737       45.29679
C         72.59272       68.23223       45.89813
H         70.48902       66.30038       44.46387
H         70.61945       67.55289       46.36138
H         73.17894       68.75849       45.11821
H         72.65738       68.82972       46.83338
H         73.05894       67.24258       46.08682
N         69.06298       69.35253       45.01884
C         68.28577       70.55859       44.77854
C         67.35376       70.78199       45.94553
O         67.43600       71.83248       46.56693
C         67.51926       70.46721       43.44545
C         68.47485       70.23100       42.26931
C         67.75894       70.33396       40.95766
O         68.11764       71.16614       40.14182
O         66.72693       69.51709       40.67031
H         68.56951       68.44611       45.02614
H         68.95175       71.44820       44.70483
H         66.98461       71.43139       43.29313
H         66.76619       69.64853       43.47206
H         68.93196       69.22525       42.35787
H         69.28873       70.98816       42.29097
N         66.46951       69.81846       46.32937
C         65.59739       69.95328       47.47801
H         64.54254       69.83835       47.15614
H         65.84083       69.15819       48.21413
H         65.70809       70.93634       47.98237
H         66.42499       68.93186       45.80568
Ca        66.61131       71.64507       37.87331
O         64.15304       72.20121       39.48382
H         63.50545       71.80973       40.12190
H         63.67578       72.96912       39.08030
O         64.53426       69.43193       38.03057
H         64.62389       69.28380       37.05566
H         64.29038       68.54529       38.39678
O         66.75467       74.54118       38.84257
H         67.64492       74.13304       38.98979
H         66.27848       74.41352       39.70124
O         67.69282       68.85126       37.24894
H         68.52579       68.39658       36.96750
H         67.10126       68.79871       36.45664
O         69.41547       71.81330       37.27715
H         70.05386       71.06734       37.15266
H         69.97288       72.63092       37.26059

Ca 1.0



