%chk=apoCaM-CA-Ng.loop2.water4.frame332.chk
%nprocshared=20
%mem=10GB
%nosave
#b3lyp/svp scf=(tight,noincore,xqc) Test 
#IOP(5/87=12) Density=Current Pop=(MK,readradii) iop(6/33=2) iop(6/42=6)

apoCaM-CA-Ng.loop2.water4.frame332 

   -2  1 
C         63.23932       75.26087       75.25769
C         63.30949       75.97699       76.57395
O         62.29217       76.05572       77.23893
H         62.50442       75.77491       74.60073
H         64.22338       75.24967       74.74632
H         62.90357       74.21498       75.41944
N         64.47935       76.50969       77.03005
C         64.57787       77.26526       78.27869
C         63.86628       78.60014       78.11373
O         64.25679       79.36464       77.24139
C         66.06346       77.48530       78.63725
C         66.28514       78.17033       79.96197
O         65.25229       78.54540       80.74238
O         67.42573       78.37901       80.34199
H         65.33203       76.36241       76.46827
H         64.12572       76.66068       79.09726
H         66.55556       78.07890       77.83587
H         66.56046       76.49175       78.68745
N         62.78564       78.92436       78.88244
C         61.99211       80.13192       78.66206
C         60.68746       79.79750       77.94810
O         59.96693       80.71611       77.58412
C         61.74904       80.85937       79.98639
H         62.45538       78.24461       79.58537
H         62.53680       80.82873       77.98756
H         62.71923       81.12617       80.45730
H         61.17634       81.79625       79.81409
H         61.17533       80.21372       80.68509
N         60.35291       78.50243       77.66040
C         59.23945       78.07087       76.82899
C         57.87713       78.33754       77.45090
O         56.87795       78.05233       76.80517
C         59.40476       78.62538       75.39378
C         58.38583       78.01551       74.42975
O         58.55796       78.52111       73.13692
O         58.54070       76.62452       74.36053
H         60.94498       77.74811       78.00838
H         59.30856       76.96252       76.74349
H         60.42626       78.37520       75.02687
H         59.29143       79.72862       75.38607
N         57.73931       78.79056       78.73016
C         56.44290       78.95610       79.36058
C         55.68421       77.65421       79.57929
O         54.57517       77.74463       80.08661
H         58.56600       79.02480       79.29601
H         55.82878       79.64762       78.74197
H         56.58359       79.42595       80.35750
N         56.17381       76.42213       79.22333
C         55.39823       75.19638       79.38229
C         56.30235       74.04949       79.82178
O         57.23275       73.70750       79.10438
C         54.66387       74.89913       78.06084
C         53.60919       73.82422       78.17262
N         52.81637       73.55876       77.11100
O         53.43585       73.21755       79.22014
H         57.08844       76.34079       78.76136
H         54.61062       75.36354       80.15006
H         55.38944       74.64862       77.25643
H         54.12693       75.82635       77.76121
H         52.93422       74.06901       76.22353
H         52.06565       72.86007       77.18545
N         56.09561       73.43234       81.01840
C         56.96024       72.39591       81.56745
C         56.92839       71.07534       80.82443
O         56.26543       70.94684       79.80410
H         55.31626       73.75606       81.61119
H         56.61177       72.18051       82.60127
H         58.00413       72.77034       81.63039
N         57.60362       70.01250       81.35751
C         57.54198       68.65729       80.80926
C         58.26103       68.50084       79.47285
O         58.07749       67.46236       78.85380
C         58.06993       67.59920       81.82309
C         59.57028       67.72738       82.14281
O         57.30202       67.61653       83.00249
H         58.09972       70.17156       82.24619
H         56.46531       68.42324       80.64502
H         57.93335       66.59153       81.37214
H         57.59179       68.38633       83.55686
H         59.87405       66.92968       82.85251
H         60.16613       67.59943       81.22143
H         59.81363       68.71023       82.59613
N         59.09523       69.45951       78.96820
C         59.75172       69.34104       77.66740
C         59.21965       70.44029       76.78523
O         59.36842       71.60640       77.12612
C         61.30206       69.43086       77.78240
C         61.91055       68.32577       78.68117
C         61.96650       69.41252       76.38852
C         61.62523       66.88587       78.23498
H         59.25905       70.32222       79.50672
H         59.50602       68.37050       77.18834
H         61.56533       70.40558       78.25133
H         61.53559       68.45756       79.71271
H         63.01296       68.46652       78.71826
H         63.06957       69.49387       76.48677
H         61.71810       68.48600       75.83146
H         61.63052       70.27687       75.77792
H         62.12834       66.18067       78.92882
H         60.54054       66.66350       78.26376
H         62.01124       66.69306       77.21371
N         58.55812       70.13045       75.63591
C         57.97320       71.15445       74.78417
C         56.94375       70.52375       73.85236
O         56.89244       70.85404       72.68151
C         59.11672       71.88361       74.03272
C         58.70377       73.11369       73.27851
O         57.43552       73.56455       73.30687
O         59.54295       73.72275       72.63660
H         58.42283       69.13526       75.39958
H         57.40898       71.84992       75.44488
H         59.58823       71.15920       73.32998
H         59.89843       72.20677       74.75048
N         56.08541       69.58323       74.33537
C         55.06251       68.90093       73.54355
C         55.67504       68.18326       72.34570
O         56.58782       67.39382       72.54891
C         54.32003       67.88004       74.43811
C         53.66176       68.58844       75.59753
C         54.10162       68.37413       76.91656
C         52.62076       69.50003       75.35953
C         53.51868       69.07830       77.97472
C         52.03463       70.19132       76.41936
C         52.48686       69.98731       77.72587
H         56.17737       69.32661       75.32951
H         54.32778       69.65224       73.20137
H         55.05628       67.13100       74.80857
H         53.54445       67.33345       73.85824
H         54.90814       67.68151       77.12432
H         52.26597       69.67866       74.35212
H         53.87078       68.92406       78.98661
H         51.23445       70.89160       76.22151
H         52.03880       70.53541       78.54412
N         55.22312       68.37897       71.06363
C         55.77214       67.68951       69.90506
C         57.05442       68.34242       69.39943
O         57.69840       67.76970       68.53193
C         54.64231       67.80707       68.87520
C         54.09585       69.19161       69.17334
C         54.08423       69.20248       70.70038
H         55.96133       66.61530       70.12460
H         54.93649       67.62215       67.81975
H         53.84213       67.08180       69.14894
H         54.85181       69.92949       68.82147
H         53.12018       69.44391       68.70682
H         54.16457       70.25243       71.05541
H         53.16702       68.72137       71.10672
N         57.45710       69.56347       69.85340
C         58.66036       70.24253       69.38669
C         59.93183       69.59086       69.91852
O         61.00579       70.01476       69.51226
C         58.64113       71.72725       69.81885
C         57.45651       72.50005       69.21214
C         57.44395       73.92659       69.67962
O         56.38296       74.40143       70.35931
O         58.38569       74.66488       69.43854
H         56.84759       70.05868       70.50791
H         58.67600       70.21443       68.27462
H         59.58091       72.22318       69.49005
H         58.59308       71.77658       70.92467
H         56.49404       72.03106       69.50481
H         57.52865       72.48182       68.10363
N         59.91049       68.58293       70.83838
C         61.12835       67.98841       71.34580
H         61.75000       68.76261       71.84473
H         60.88546       67.19784       72.08728
H         61.70303       67.53130       70.51244
H         59.01959       68.22722       71.21112
Ca        58.82385       76.50862       72.11950
O         55.79124       75.85782       74.24693
H         54.87025       75.50315       74.31103
H         55.77385       76.69034       74.78148
O         61.60334       76.09150       71.16782
H         61.73751       76.84755       71.79310
H         61.51476       75.29963       71.75515
O         55.39637       77.15753       71.36424
H         54.66705       76.50107       71.23056
H         55.12250       77.67181       72.16467
O         58.44920       78.18770       69.68122
H         59.42732       78.13802       69.82874
H         58.14852       78.93038       70.26310

Ca 1.0



