%chk=apoCaM-CA-Ng.loop4.water3.frame499.chk
%nprocshared=20
%mem=10GB
%nosave
#b3lyp/svp scf=(tight,noincore,xqc) Test 
#IOP(5/87=12) Density=Current Pop=(MK,readradii) iop(6/33=2) iop(6/42=6)

apoCaM-CA-Ng.loop4.water3.frame499 

   -3  1 
C         63.17796       71.43241       86.37379
C         62.75653       72.50588       87.32932
O         61.61150       72.50107       87.73898
H         63.99830       70.83733       86.82671
H         62.32741       70.74871       86.15653
H         63.52517       71.88640       85.42393
N         63.64865       73.44281       87.75908
C         63.35424       74.48319       88.74541
C         62.90713       73.85317       90.05624
O         61.83937       74.15251       90.56447
C         62.50307       75.64226       88.15075
C         61.15269       75.31207       87.57266
O         60.05840       75.19554       88.34928
O         61.00764       75.31997       86.36004
H         64.61763       73.38065       87.41090
H         64.31824       74.98414       88.99097
H         63.11665       76.04780       87.31439
H         62.39248       76.46995       88.88378
N         63.75460       72.95484       90.64424
C         63.59407       72.23499       91.90794
C         63.64152       73.17950       93.10163
O         64.67566       73.20052       93.75599
C         62.39279       71.25115       91.91568
C         62.27987       70.44278       93.23915
C         62.44077       70.30450       90.70342
C         63.47715       69.53967       93.55757
H         64.63391       72.75582       90.14081
H         64.50892       71.60510       91.98814
H         61.46776       71.83936       91.82160
H         61.36841       69.80776       93.19053
H         62.14666       71.14170       94.09103
H         63.37119       69.70120       90.69469
H         61.56772       69.61932       90.71761
H         62.39932       70.88119       89.75821
H         64.40504       70.13203       93.68899
H         63.28491       69.00034       94.50875
H         63.63387       68.78303       92.76326
N         62.58423       73.96551       93.47238
C         62.67361       74.93353       94.56202
C         61.92486       74.54827       95.84486
O         62.48436       74.86786       96.88586
C         62.34950       76.35519       94.07481
C         63.28814       76.77868       92.97543
O         64.61552       76.83327       93.20251
O         62.85297       77.08010       91.87588
H         61.70258       73.90962       92.95045
H         63.73359       74.99979       94.90020
H         62.46563       77.07231       94.91699
H         61.30587       76.40544       93.70961
N         60.75306       73.84666       95.96900
C         59.84819       73.34822       94.94631
C         58.96878       74.44075       94.36717
O         59.19517       75.60382       94.66507
H         60.46606       73.62067       96.93562
H         59.14389       72.66229       95.46333
H         60.37494       72.72985       94.20056
N         57.87590       74.16723       93.58899
C         57.43540       72.81932       93.21128
C         58.46656       72.16359       92.30427
O         59.33600       72.88127       91.83357
C         56.03434       72.90583       92.54461
C         56.02277       73.67393       91.24816
O         56.64464       73.26613       90.28059
O         55.29257       74.80004       91.13968
H         57.30268       74.97280       93.29151
H         57.32556       72.22477       94.14185
H         55.34694       73.40305       93.26290
H         55.60387       71.91265       92.34865
N         58.47742       70.84176       91.96219
C         57.57210       69.79581       92.40461
C         57.85130       69.32255       93.80416
O         58.71503       69.86428       94.48129
H         59.22116       70.53479       91.32391
H         57.77008       68.90352       91.77155
H         56.51475       70.04735       92.23856
N         57.20071       68.21109       94.25158
C         57.54117       67.51677       95.48531
C         58.26000       66.19763       95.18388
O         58.72384       65.56819       96.12231
C         56.31577       67.41088       96.42451
C         55.05766       66.72844       95.85787
C         55.23802       65.26558       95.57181
N         55.54944       64.39643       96.56006
O         55.07001       64.85405       94.43720
H         56.49885       67.77901       93.63034
H         58.29641       68.10809       96.04947
H         56.01877       68.45169       96.68061
H         56.61839       66.91814       97.37343
H         54.72448       67.26246       94.94258
H         54.24002       66.82385       96.60421
H         55.67289       64.72006       97.52978
H         55.65373       63.39227       96.35689
N         58.49423       65.78700       93.89536
C         59.42800       64.71893       93.53385
C         58.77952       63.59351       92.73609
O         59.51194       62.70590       92.31134
C         60.62029       65.33143       92.73120
C         61.36435       66.38456       93.56574
C         60.19891       65.94377       91.38102
H         58.08255       66.30696       93.11322
H         59.86077       64.25096       94.44513
H         61.34461       64.51450       92.51460
H         61.72086       65.93919       94.51846
H         62.24790       66.75661       93.00645
H         60.70709       67.25006       93.79777
H         59.69644       65.18724       90.74286
H         59.51673       66.80603       91.51840
H         61.09368       66.30785       90.83260
N         57.43575       63.52352       92.51545
C         56.80711       62.44460       91.75673
C         55.87860       62.94898       90.64864
O         55.36717       62.11494       89.91838
C         55.98494       61.55617       92.71703
C         56.81244       61.00122       93.85231
N         57.86517       60.18390       93.61701
O         56.51957       61.28801       95.00290
H         56.83009       64.22505       92.95523
H         57.58389       61.81146       91.27366
H         55.54031       60.70276       92.16026
H         55.15211       62.16240       93.13962
H         58.12739       59.91960       92.65708
H         58.41968       59.81034       94.40214
N         55.54423       64.27160       90.51116
C         54.50682       64.73889       89.59447
C         54.97000       65.92757       88.76279
O         55.40304       66.92063       89.32672
C         53.27679       65.18169       90.41970
C         52.58533       64.03170       91.11894
C         52.50186       63.99119       92.51987
C         51.98403       63.00348       90.37066
C         51.83815       62.94017       93.16156
C         51.31394       61.95752       91.01275
C         51.23888       61.92269       92.41212
O         50.58886       60.92467       93.04475
H         55.94116       64.97215       91.14795
H         54.17109       63.93245       88.90917
H         52.52246       65.64805       89.75031
H         53.59675       65.95465       91.15384
H         52.94388       64.77552       93.11593
H         52.01997       63.01718       89.28885
H         51.78175       62.92161       94.24280
H         50.84828       61.17886       90.42144
H         50.14716       60.21062       92.56289
N         54.77605       65.92262       87.40762
C         54.92053       67.08547       86.52675
C         56.33808       67.59599       86.33332
O         56.47729       68.57706       85.61353
C         54.00978       68.25653       86.97498
C         52.52695       67.87453       87.03980
C         51.69464       69.07176       87.40303
O         50.95460       69.06533       88.52761
O         51.68268       70.05547       86.67918
H         54.38866       65.07080       86.97526
H         54.57542       66.78275       85.51189
H         54.11129       69.08139       86.23487
H         54.33527       68.65264       87.95986
H         52.37781       67.07880       87.79844
H         52.19016       67.49113       86.05259
N         57.43881       66.99379       86.86581
C         58.78267       67.52237       86.64302
C         59.58663       66.65633       85.68935
O         60.71798       67.02136       85.39645
C         59.52269       67.67934       87.97937
C         58.82076       68.57512       89.00687
C         58.64591       69.99324       88.54593
O         59.48454       70.92787       89.01775
O         57.77465       70.29859       87.74820
H         57.33879       66.12425       87.40995
H         58.74218       68.52036       86.15612
H         60.53270       68.10699       87.78669
H         59.65946       66.67547       88.43697
H         59.48917       68.58690       89.89281
H         57.84489       68.16094       89.33530
N         59.07696       65.52384       85.12784
C         59.83595       64.74298       84.17642
H         60.77505       64.37959       84.64436
H         59.23823       63.86983       83.84066
H         60.08068       65.36692       83.28967
H         58.12576       65.20346       85.35672
Ca        59.29680       73.15489       88.86072
O         58.77801       75.85107       90.91888
H         57.82913       76.13138       90.94673
H         59.27515       76.68076       90.70795
O         56.84773       74.81903       87.28633
H         57.14204       75.27680       86.45899
H         55.86350       74.92738       87.29362
O         58.97507       72.84193       85.77745
H         58.35771       72.11433       85.51365
H         59.84027       72.59752       85.36274

Ca 1.0



