%chk=apoCaM-CA-Ng.loop3.water4.frame153.chk
%nprocshared=20
%mem=10GB
%nosave
#b3lyp/svp scf=(tight,noincore,xqc) Test 
#IOP(5/87=12) Density=Current Pop=(MK,readradii) iop(6/33=2) iop(6/42=6)

apoCaM-CA-Ng.loop3.water4.frame153 

   0  1 
C         58.01244       43.39431       77.26571
C         58.43325       42.25678       78.14968
O         57.73462       41.25605       78.19208
H         57.01636       43.76535       77.58445
H         58.73098       44.23869       77.32147
H         57.95213       43.04705       76.21343
N         59.56472       42.34878       78.90531
C         60.03259       41.30804       79.81377
C         58.97339       41.04111       80.87416
O         58.54623       39.90782       81.04917
C         60.46718       40.05515       79.01302
C         61.11423       39.01282       79.88230
O         62.22957       39.30878       80.57664
O         60.64323       37.88849       79.94804
H         60.11979       43.21697       78.85923
H         60.93551       41.69957       80.33376
H         61.21127       40.36101       78.24601
H         59.59684       39.61120       78.48426
N         58.47365       42.08694       81.59287
C         57.42065       41.95747       82.59114
C         56.17401       42.65810       82.06397
O         55.66479       43.58055       82.68677
C         57.90076       42.56298       83.93048
C         59.17363       41.92485       84.51575
C         58.97300       40.48286       85.00312
C         60.25103       39.96523       85.68349
N         60.05846       38.61895       86.22097
H         58.82747       43.03550       81.39280
H         57.14638       40.89263       82.75242
H         57.08802       42.50235       84.68738
H         58.12421       43.63869       83.75527
H         59.46780       42.54002       85.39437
H         60.00202       41.97127       83.77547
H         58.71118       39.81804       84.15276
H         58.14280       40.46629       85.74269
H         60.52816       40.64702       86.51898
H         61.08761       39.95534       84.94966
H         60.94351       38.30613       86.68233
H         59.29332       38.62415       86.93441
H         59.82166       37.95229       85.45130
N         55.63790       42.25344       80.87852
C         54.45460       42.85430       80.26639
C         53.24275       42.62647       81.16109
O         53.02954       41.49828       81.58432
C         54.25622       42.25127       78.86115
C         53.18418       42.95589       78.07702
O         53.47766       43.60579       76.93930
O         52.02959       42.93937       78.45400
H         56.10981       41.48261       80.38044
H         54.63629       43.94299       80.12117
H         54.04131       41.16534       78.94165
H         55.20320       42.36658       78.29429
N         52.42192       43.66031       81.51550
C         51.36423       43.52742       82.51130
C         50.29721       42.48554       82.21720
O         49.59285       42.13127       83.15186
H         52.59770       44.59732       81.12222
H         50.87284       44.50816       82.69310
H         51.86121       43.22810       83.45920
N         50.11404       41.94207       80.97874
C         49.19481       40.83465       80.71151
C         49.92466       39.60211       80.17884
O         49.37266       38.51626       80.28935
C         48.03357       41.28043       79.79585
C         48.46488       41.75892       78.42852
N         49.00402       40.91065       77.52218
O         48.29663       42.93080       78.12649
H         50.64590       42.33273       80.20118
H         48.72791       40.51447       81.66893
H         47.51093       42.11435       80.31560
H         47.29984       40.45433       79.67264
H         49.12071       39.90892       77.72474
H         49.28470       41.25485       76.59456
N         51.13964       39.68892       79.55673
C         51.90171       38.54564       79.08384
C         51.97607       38.50478       77.57102
O         51.63240       37.47665       77.00505
H         51.56891       40.60535       79.40008
H         51.46567       37.58862       79.44557
H         52.92655       38.61789       79.50735
N         52.39824       39.58169       76.84477
C         52.50059       39.58325       75.38881
C         51.44871       40.47717       74.78357
O         51.43628       41.67534       75.02903
C         53.88639       40.05822       74.92076
C         54.95261       39.02161       75.13232
C         54.86836       37.79311       74.45429
C         56.05235       39.27608       75.96171
C         55.86813       36.83342       74.60439
C         57.05570       38.31271       76.11170
C         56.96628       37.08818       75.43000
O         57.92927       36.15378       75.55379
H         52.62067       40.45254       77.33745
H         52.32435       38.56296       74.99149
H         54.13153       41.02151       75.42271
H         53.86122       40.25288       73.82517
H         54.03414       37.58231       73.79615
H         56.13305       40.22022       76.48213
H         55.79072       35.89510       74.06967
H         57.90377       38.52090       76.75068
H         58.71273       36.29266       76.10369
N         50.51792       39.91759       73.96555
C         49.43928       40.64077       73.32115
C         48.18150       40.34789       74.11113
O         47.50423       41.28518       74.50694
C         49.33331       40.22914       71.82329
C         50.68716       40.33808       71.06564
C         48.24074       41.03875       71.10035
C         51.31721       41.73281       71.04501
H         50.54398       38.89665       73.82346
H         49.61843       41.73811       73.36478
H         49.04020       39.15638       71.77506
H         50.53806       40.00430       70.01528
H         51.42164       39.64219       71.52546
H         47.25309       40.88561       71.57683
H         48.46167       42.12569       71.12274
H         48.15858       40.71080       70.04187
H         52.26784       41.69653       70.47200
H         50.65198       42.47266       70.55613
H         51.55773       42.06454       72.07351
N         47.86496       39.07068       74.48142
C         46.76889       38.79333       75.40057
C         45.41584       39.04789       74.77058
O         44.43519       39.04009       75.50318
C         46.86641       37.36782       75.95789
O         48.09855       37.21342       76.61064
H         48.47079       38.29188       74.18659
H         46.87786       39.48083       76.27028
H         46.78329       36.63150       75.12891
H         46.04148       37.21143       76.68994
H         48.07155       36.32852       77.05756
N         45.27978       39.32659       73.43821
C         44.03039       39.73677       72.82125
C         43.56191       41.01256       73.49363
O         42.47072       41.05365       74.04201
C         42.99416       38.60142       72.85112
H         46.10445       39.30503       72.82331
H         44.22082       39.96704       71.74908
H         43.40294       37.71040       72.32827
H         42.72204       38.30998       73.88531
H         42.07027       38.92067       72.32388
N         44.38543       42.10355       73.49615
C         44.04015       43.34807       74.18044
C         44.99318       44.48636       73.83985
O         46.00329       44.27836       73.18449
C         44.03980       43.13048       75.70229
H         45.27314       42.03175       72.97896
H         43.03388       43.66214       73.82725
H         43.32276       42.33976       75.99979
H         45.05482       42.82391       76.03931
H         43.75524       44.05947       76.23807
N         44.66755       45.75999       74.22078
C         45.45675       46.94915       73.90698
C         45.59152       47.19749       72.40374
O         46.31112       48.11673       72.03701
C         46.83290       46.92330       74.61488
C         46.68009       46.80355       76.14181
C         47.99170       46.99260       76.85120
O         48.13889       48.00263       77.73034
O         48.92548       46.23620       76.64519
H         43.79261       45.90710       74.74460
H         44.92542       47.83805       74.31577
H         47.34750       47.88594       74.39764
H         47.47000       46.10411       74.22573
H         46.25643       45.81049       76.40554
H         45.98117       47.59036       76.50031
N         44.90546       46.46276       71.47608
C         45.01947       46.66817       70.04669
H         45.74952       47.46199       69.78586
H         45.34790       45.72116       69.56880
H         44.02725       46.94995       69.63630
H         44.24734       45.72971       71.76944
Ca        51.71693       44.61705       75.95831
O         52.52734       47.42962       76.32094
H         51.70157       47.62455       76.83148
H         52.22776       47.37000       75.37874
O         51.54733       44.73547       72.98923
H         52.43918       44.48848       73.34165
H         50.95378       44.00274       73.28944
O         50.29168       45.11504       79.19325
H         50.84054       45.93840       79.22364
H         49.46426       45.34560       79.68511
O         48.78615       43.68639       75.16676
H         47.80640       43.82176       75.13646
H         49.16069       44.50130       74.75123

Ca 1.0



