%chk=apoCaM-CA-Ng.loop1.water3.frame1403.chk
%nprocshared=20
%mem=10GB
%nosave
#b3lyp/svp scf=(tight,noincore,xqc) Test 
#IOP(5/87=12) Density=Current Pop=(MK,readradii) iop(6/33=2) iop(6/42=6)

apoCaM-CA-Ng.loop1.water3.frame1403 

   0  1 
C         39.90827       76.62468       97.08734
C         38.77802       77.52332       96.67796
O         37.93642       77.08904       95.90454
H         40.61896       77.14612       97.76245
H         39.50804       75.73158       97.60971
H         40.46397       76.29849       96.18228
N         38.70411       78.80177       97.14839
C         37.67941       79.75417       96.72743
C         38.35399       80.91728       96.03151
O         38.12572       82.07133       96.37085
C         36.80857       80.18297       97.93146
C         37.53672       80.89910       99.05019
O         36.84400       81.29176      100.13475
O         38.73226       81.14216       98.99042
H         39.43518       79.12366       97.79905
H         37.00807       79.28096       95.98442
H         36.33579       79.27175       98.35546
H         35.99969       80.85108       97.56491
N         39.28020       80.65310       95.07457
C         40.16461       81.67260       94.54057
C         39.49741       82.47198       93.43329
O         39.51498       83.69000       93.54364
C         41.54609       81.05690       94.24145
C         42.68932       82.09594       94.23911
C         44.09164       81.45035       94.30434
C         44.35626       80.69843       95.63328
N         45.70778       80.14386       95.67503
H         39.49371       79.66385       94.87344
H         40.38710       82.37142       95.38097
H         41.54626       80.43216       93.32358
H         41.73065       80.39053       95.10273
H         42.60439       82.76218       95.12722
H         42.59989       82.72896       93.33080
H         44.84315       82.26683       94.22734
H         44.22845       80.76592       93.44120
H         43.64930       79.85627       95.76896
H         44.22446       81.39956       96.48853
H         45.83476       79.45830       94.89565
H         46.41737       80.90755       95.60129
H         45.84131       79.64412       96.58492
N         38.78464       81.93080       92.39442
C         38.54354       80.50622       92.13142
C         37.17918       80.08965       92.63881
O         36.40134       80.93482       93.05882
C         38.71597       80.18424       90.62862
C         38.03036       81.19622       89.73834
O         36.68624       81.37188       89.64832
O         38.74888       82.00489       89.17521
H         38.27728       82.60967       91.80599
H         39.27198       79.88726       92.68555
H         38.42153       79.14501       90.37314
H         39.80927       80.26551       90.42939
N         36.87107       78.76399       92.73814
C         35.65612       78.30239       93.38735
C         34.44041       78.39499       92.50881
O         34.56390       78.62432       91.31826
H         37.57946       78.06319       92.47013
H         35.50264       78.87623       94.32316
H         35.76299       77.23117       93.66390
N         33.20878       78.20934       93.05835
C         31.97048       78.13523       92.28665
C         31.15058       76.91760       92.75184
O         31.45601       76.37762       93.80598
C         31.17423       79.44329       92.48472
C         31.90973       80.62700       91.92197
O         32.16997       80.67924       90.72958
O         32.26183       81.64717       92.72623
H         33.14969       78.12614       94.08491
H         32.21589       78.02713       91.21057
H         30.98297       79.59736       93.56786
H         30.19503       79.41335       91.97921
N         30.08965       76.40118       92.05693
C         29.69082       76.82545       90.72901
C         30.76012       76.49459       89.72384
O         31.67011       75.73476       90.02846
H         29.56128       75.62100       92.47755
H         29.46702       77.90390       90.72071
H         28.76004       76.30522       90.41529
N         30.72889       77.07264       88.49760
C         31.75588       76.83430       87.49299
C         33.17372       77.16358       88.08313
O         33.22534       78.55837       88.34491
C         31.38333       77.62765       86.19866
C         32.35949       77.45726       85.02905
O         31.24626       78.99389       86.49659
H         29.95093       77.71857       88.28812
H         31.72658       75.74916       87.24825
H         30.39506       77.22558       85.86897
H         30.60725       79.37586       85.83899
H         31.96815       77.99354       84.13824
H         33.34992       77.89759       85.26125
H         32.47496       76.38441       84.77079
N         34.22985       76.62507       87.18722
C         35.57443       76.33370       87.74166
C         36.48534       77.44724       87.31573
O         36.29145       78.56271       87.72680
C         35.60960       75.99750       89.26780
C         34.90783       74.63422       89.51753
C         37.06347       75.96194       89.78699
C         34.78656       74.25213       90.99511
H         33.88795       75.70605       86.81855
H         35.97207       75.42858       87.22405
H         35.08722       76.79582       89.82301
H         35.46312       73.82762       88.98841
H         33.88096       74.66226       89.10102
H         37.10079       75.78076       90.87898
H         37.65248       75.18050       89.26209
H         37.55728       76.94321       89.63278
H         35.77956       74.12188       91.47005
H         34.20888       75.02332       91.54640
H         34.25594       73.27994       91.07905
N         37.49304       77.23158       86.43935
C         38.28541       78.32479       85.89908
C         38.01757       78.49249       84.41428
O         38.60464       79.39376       83.83285
C         39.77290       78.16924       86.28622
C         40.38253       76.83472       85.85997
O         39.90352       78.28847       87.68057
H         37.66427       76.27625       86.09167
H         37.97394       79.30400       86.32849
H         40.36111       78.98087       85.79737
H         39.80699       79.25363       87.89839
H         41.45594       76.81667       86.14361
H         39.88715       75.99017       86.38415
H         40.29391       76.69502       84.76374
N         37.09378       77.72908       83.74359
C         36.71900       78.00276       82.36076
C         36.02469       79.35679       82.32039
O         34.88871       79.46461       82.76126
C         35.82004       76.88130       81.77306
C         36.55227       75.53537       81.73589
O         34.64671       76.72849       82.53574
H         36.60841       76.96306       84.22880
H         37.65117       78.03356       81.75361
H         35.57204       77.14029       80.71551
H         33.90161       77.14619       82.03003
H         35.89570       74.76178       81.28459
H         37.47663       75.61505       81.12614
H         36.82737       75.19735       82.75741
N         36.72370       80.46042       81.92900
C         36.26172       81.84363       82.03756
C         35.91723       82.23594       83.46962
O         35.70380       81.37717       84.31196
C         35.09781       82.16270       81.08081
C         35.50855       81.94591       79.61821
C         34.39917       82.38779       78.65224
C         34.83607       82.31685       77.17814
N         35.05731       80.94451       76.71906
H         37.69155       80.32813       81.59825
H         37.12425       82.48434       81.74389
H         34.82284       83.23315       81.21084
H         34.20650       81.54547       81.32527
H         35.75506       80.87492       79.46532
H         36.41432       82.55807       79.41266
H         34.15609       83.45099       78.87044
H         33.48001       81.78224       78.80956
H         35.76210       82.91783       77.03627
H         34.03741       82.77398       76.55321
H         35.80934       80.47603       77.27076
H         34.16828       80.39825       76.78904
H         35.35794       80.96976       75.71788
N         35.91850       83.55243       83.82682
C         35.60966       84.02048       85.17685
C         36.40990       83.26304       86.23410
O         35.77889       82.72561       87.13257
C         35.80426       85.54741       85.32552
C         34.87277       86.36741       84.41852
C         35.09156       87.83897       84.62738
O         34.08229       88.61734       85.06138
O         36.18163       88.33846       84.39573
H         36.18928       84.24093       83.10989
H         34.53252       83.81799       85.37987
H         36.85019       85.82869       85.10842
H         35.58201       85.82607       86.38043
H         33.81619       86.11475       84.65326
H         35.05768       86.14202       83.34858
N         37.76410       83.10148       86.21926
C         38.67347       83.61574       85.22194
H         39.70433       83.27822       85.46253
H         38.42088       83.22198       84.21901
H         38.68196       84.71897       85.22672
H         38.18205       82.53049       86.96193
Ca        34.89941       80.05930       89.01545
O         32.89088       82.94549       88.48562
H         33.08406       83.80864       88.04042
H         31.99773       83.07026       88.89430
O         34.83869       82.70115       91.38104
H         34.00883       83.12494       91.04983
H         34.66095       81.72948       91.31400
O         33.53742       80.52310       86.04579
H         32.97010       80.61816       85.24021
H         33.76790       81.45173       86.28998

Ca 1.0



