%chk=apoCaM-CA-Ng.loop1.water5.frame503.chk
%nprocshared=20
%mem=10GB
%nosave
#b3lyp/svp scf=(tight,noincore,xqc) Test 
#IOP(5/87=12) Density=Current Pop=(MK,readradii) iop(6/33=2) iop(6/42=6)

apoCaM-CA-Ng.loop1.water5.frame503 

   0  1 
C         49.90628       62.55075       22.12392
C         50.00311       63.83462       21.35365
O         49.79043       63.81353       20.15031
H         48.88407       62.13187       22.01210
H         50.64499       61.82202       21.73099
H         50.10329       62.70922       23.20527
N         50.30998       65.00146       21.99210
C         50.39781       66.31029       21.34775
C         49.03527       66.74379       20.81087
O         48.09022       65.96815       20.86237
C         51.53564       66.31578       20.29573
C         51.86915       67.68524       19.77463
O         51.77870       67.92956       18.58210
O         52.28308       68.64803       20.62172
H         50.48578       64.97153       23.00842
H         50.67077       67.03850       22.14510
H         51.27770       65.64946       19.44692
H         52.45915       65.92459       20.77472
N         48.84224       68.01739       20.36360
C         47.54944       68.56472       19.97477
C         46.58608       68.46239       21.13934
O         45.46006       68.01769       20.95889
C         46.99153       67.90988       18.68845
C         47.91515       68.12319       17.48554
C         47.30766       67.51304       16.21617
C         48.20076       67.78418       14.99962
N         47.62017       67.21360       13.78483
H         49.62864       68.67904       20.37651
H         47.68908       69.65030       19.77180
H         46.00793       68.37528       18.45357
H         46.82709       66.82205       18.84555
H         48.90470       67.65640       17.68276
H         48.05528       69.21573       17.33291
H         46.30620       67.96191       16.03343
H         47.18584       66.41569       16.35314
H         49.20759       67.34232       15.16959
H         48.31593       68.88325       14.86677
H         47.53513       66.17559       13.88011
H         46.67764       67.63046       13.60543
H         48.24436       67.43002       12.97442
N         46.98218       68.86755       22.38159
C         46.10371       68.83114       23.54279
C         46.82917       69.41934       24.75807
O         47.89647       68.90938       25.07161
C         45.64315       67.39030       23.88181
C         44.46395       67.48694       24.79287
O         43.45423       68.04553       24.39058
O         44.48151       67.01595       26.04839
H         47.93694       69.24492       22.48891
H         45.22171       69.42660       23.24825
H         46.47409       66.80018       24.32564
H         45.28472       66.83654       22.99313
N         46.38971       70.48917       25.48750
C         45.11886       71.17297       25.32124
C         44.47888       71.44941       26.66108
O         44.24938       72.61453       26.95472
H         47.02146       70.85628       26.21771
H         44.39593       70.60261       24.71797
H         45.30944       72.14515       24.81641
N         44.18950       70.44621       27.54467
C         43.60906       70.72261       28.85883
C         43.70422       69.53320       29.79840
O         43.12128       68.50235       29.51808
C         42.15711       71.26936       28.77430
C         40.98196       70.38963       28.36548
O         41.04597       69.09358       27.98208
O         39.87180       70.89083       28.44067
H         44.47156       69.48628       27.30211
H         44.22639       71.53038       29.31253
H         42.14174       72.16527       28.12129
H         41.91183       71.61978       29.80035
N         44.44708       69.59685       30.94116
C         44.57798       68.46462       31.84492
C         45.98703       67.94973       31.79965
O         46.63185       67.85498       32.83453
H         44.96624       70.45859       31.16755
H         43.91980       67.62364       31.54141
H         44.27588       68.76141       32.87281
N         46.52571       67.60059       30.59771
C         47.86354       67.05470       30.42163
C         47.74135       65.74013       29.67150
O         47.19413       65.73899       28.57613
C         48.77815       68.09109       29.71368
C         48.36480       68.44550       28.27927
O         48.79728       69.27994       30.46319
H         45.95101       67.73849       29.75186
H         48.33091       66.86406       31.41361
H         49.81178       67.67865       29.65251
H         49.33410       69.10417       31.27931
H         47.33555       68.85925       28.24385
H         49.06020       69.21064       27.87458
H         48.43484       67.56434       27.61146
N         48.15739       64.56562       30.22550
C         47.89855       63.26889       29.60048
C         46.86134       62.47297       30.39230
O         46.49152       61.39987       29.94291
C         49.20503       62.47372       29.32490
C         49.95544       62.09100       30.62314
C         50.09836       63.26400       28.34802
C         51.11810       61.12584       30.37517
H         48.60708       64.58592       31.15423
H         47.41847       63.41325       28.60669
H         48.90493       61.53233       28.81187
H         49.25025       61.57257       31.30711
H         50.33640       62.99936       31.13612
H         50.97978       62.67095       28.03312
H         49.53142       63.50847       27.42386
H         50.44923       64.21190       28.80858
H         51.90627       61.58520       29.74586
H         51.58046       60.84647       31.34464
H         50.74862       60.20080       29.88211
N         46.28021       62.98175       31.52319
C         45.14065       62.36773       32.19448
C         45.41377       62.14112       33.66936
O         45.81284       63.06563       34.36023
C         43.87428       63.24369       31.99474
C         44.02585       64.71097       32.42322
O         43.51139       63.22329       30.63969
H         46.58889       63.88940       31.89028
H         44.89091       61.38522       31.73961
H         43.04184       62.81077       32.59917
H         43.05301       62.35788       30.47437
H         44.79502       65.22590       31.81093
H         43.06574       65.24337       32.26278
H         44.28791       64.80473       33.49494
N         45.15828       60.91700       34.22090
C         45.27322       60.62304       35.64709
C         45.03185       59.13016       35.87905
O         45.93548       58.45830       36.35656
C         44.29739       61.51550       36.48495
C         44.36729       61.21597       37.98650
O         42.97534       61.36312       36.03480
H         44.84127       60.16157       33.59502
H         46.31376       60.85080       35.97192
H         44.59746       62.57811       36.35437
H         42.46618       62.16081       36.33679
H         43.68948       61.90458       38.53642
H         44.04745       60.17440       38.19883
H         45.40059       61.36877       38.36171
N         43.82979       58.55521       35.58229
C         43.49974       57.15566       35.83418
C         42.94773       56.50814       34.57012
O         42.18081       57.14173       33.85712
C         42.48757       57.10534       36.99123
C         42.07961       55.67122       37.36157
C         41.18546       55.66419       38.60953
C         40.58511       54.28241       38.92156
N         41.59766       53.27729       39.24794
H         43.07856       59.14836       35.20320
H         44.39199       56.58638       36.17852
H         41.57960       57.69384       36.73385
H         42.97134       57.57689       37.87599
H         42.98967       55.06311       37.55361
H         41.52257       55.23452       36.50753
H         40.33431       56.35746       38.43696
H         41.76352       56.03365       39.48551
H         39.98032       53.93872       38.05397
H         39.90016       54.39227       39.79103
H         42.23631       53.11441       38.44019
H         42.14951       53.57703       40.08358
H         41.11589       52.37495       39.46610
N         43.26255       55.21668       34.25802
C         42.79992       54.55767       33.03820
C         43.37617       55.24933       31.80574
O         42.57994       55.69563       30.99194
C         43.11849       53.03666       33.03804
C         42.05779       52.18182       33.75729
C         41.86543       52.53187       35.19962
O         40.76967       52.89434       35.59809
O         42.88782       52.41552       36.06573
H         43.85351       54.68605       34.91591
H         41.69065       54.64093       32.96553
H         44.12404       52.83116       33.45514
H         43.10357       52.66693       31.98904
H         42.35301       51.11229       33.69084
H         41.08940       52.29576       33.21990
N         44.70892       55.40832       31.55645
C         45.77766       54.97459       32.42867
H         46.75506       55.26148       31.98649
H         45.69588       55.46845       33.41787
H         45.77913       53.87504       32.53429
H         44.98302       55.89291       30.68740
Ca        42.62794       67.79926       27.03318
O         43.94986       65.10891       28.39288
H         43.10726       65.15314       28.90929
H         44.65905       65.19550       29.07725
O         40.76194       64.61509       27.65368
H         40.74880       63.90112       28.33950
H         39.83296       64.65376       27.31431
O         42.56400       64.88022       25.29234
H         43.47443       64.52771       25.12770
H         42.03738       64.59023       24.50615
O         40.12696       66.98469       25.57886
H         39.40376       67.65955       25.61699
H         40.40495       66.96849       24.62878
O         41.04143       66.63288       30.06840
H         41.11195       67.39909       30.69150
H         41.23546       65.84061       30.62864

Ca 1.0



