%chk=apoCaM-CA-Ng.loop3.water3.frame942.chk
%nprocshared=20
%mem=10GB
%nosave
#b3lyp/svp scf=(tight,noincore,xqc) Test 
#IOP(5/87=12) Density=Current Pop=(MK,readradii) iop(6/33=2) iop(6/42=6)

apoCaM-CA-Ng.loop3.water3.frame942 

   0  1 
C        -23.53807       19.27554       67.89165
C        -24.54989       20.34303       67.59867
O        -25.71250       20.01509       67.40778
H        -22.53083       19.70802       68.06827
H        -23.84522       18.72647       68.80759
H        -23.48125       18.56555       67.04175
N        -24.18759       21.65696       67.58628
C        -25.16233       22.73268       67.42732
C        -25.76608       22.72261       66.01728
O        -25.22614       22.05491       65.14578
C        -24.48600       24.08257       67.79926
C        -25.39491       25.18387       68.27522
O        -24.84878       26.32843       68.72736
O        -26.59930       25.03020       68.36025
H        -23.20197       21.89313       67.78099
H        -25.94442       22.54388       68.17776
H        -23.83656       24.42704       66.96616
H        -23.83146       23.90869       68.67749
N        -26.88769       23.44145       65.72539
C        -27.47391       23.55849       64.38743
C        -27.38504       24.99033       63.86083
O        -27.68740       25.20801       62.69572
C        -28.93866       23.05343       64.37986
C        -29.84835       23.76054       65.40780
C        -31.30038       23.27646       65.30767
C        -32.15687       23.87940       66.43223
N        -33.54815       23.44092       66.32997
H        -27.34376       23.94688       66.48781
H        -26.89533       22.93976       63.66757
H        -28.94133       21.96531       64.60717
H        -29.35604       23.18815       63.35735
H        -29.82472       24.86149       65.25337
H        -29.48428       23.53239       66.43125
H        -31.33078       22.16878       65.39779
H        -31.71509       23.56782       64.31778
H        -32.11863       24.99054       66.38598
H        -31.74663       23.55387       67.41463
H        -33.96650       23.78440       65.43522
H        -33.60279       22.39714       66.36917
H        -34.09103       23.83693       67.13141
N        -26.97975       26.01248       64.66213
C        -26.80964       27.39579       64.24847
C        -25.38281       27.83572       64.56307
O        -24.69911       28.29055       63.65674
C        -27.92153       28.28054       64.87300
C        -28.32774       27.93772       66.28758
O        -29.45822       27.53124       66.50526
O        -27.47337       28.04969       67.31325
H        -26.78743       25.82084       65.64933
H        -26.93641       27.51482       63.14772
H        -28.83214       28.11105       64.25528
H        -27.66034       29.35608       64.77323
N        -24.84888       27.67672       65.80679
C        -23.48289       28.01719       66.16912
C        -23.41403       29.01456       67.30962
O        -22.30527       29.33391       67.71496
H        -25.41925       27.24970       66.53721
H        -22.92464       28.43491       65.30452
H        -22.96797       27.08476       66.48780
N        -24.53578       29.56354       67.86680
C        -24.50925       30.56369       68.92837
C        -25.28605       30.11776       70.16235
O        -25.94927       29.09156       70.13873
C        -25.08120       31.90203       68.40100
C        -26.54856       31.83075       68.02114
N        -27.47287       32.54079       68.70885
O        -26.90659       31.13555       67.08264
H        -25.45200       29.29193       67.50580
H        -23.45901       30.74491       69.24415
H        -24.49597       32.23897       67.51823
H        -24.94759       32.67146       69.18953
H        -27.20133       33.13262       69.50672
H        -28.46926       32.48948       68.44923
N        -25.23795       30.88294       71.28943
C        -25.99681       30.63679       72.50632
C        -25.73750       29.27633       73.11062
O        -24.58760       28.87783       73.22907
H        -24.63098       31.71681       71.28640
H        -27.08237       30.76886       72.30529
H        -25.70225       31.40623       73.25217
N        -26.78380       28.53083       73.57217
C        -26.63177       27.20449       74.16310
C        -26.51058       26.14362       73.07487
O        -26.49223       26.47742       71.89944
C        -27.82483       26.88810       75.10865
C        -27.84359       27.71313       76.37680
C        -28.97816       28.46368       76.72656
C        -26.74609       27.68531       77.25962
C        -29.01659       29.16475       77.93803
C        -26.78315       28.39444       78.46284
C        -27.91872       29.13002       78.81082
O        -27.94686       29.78777       79.98774
H        -27.73077       28.93847       73.53006
H        -25.70166       27.16083       74.76804
H        -27.76259       25.84506       75.47146
H        -28.78071       26.97560       74.54963
H        -29.84237       28.48854       76.07526
H        -25.86252       27.10461       77.02933
H        -29.90402       29.72528       78.20290
H        -25.93241       28.35918       79.13258
H        -28.72101       30.28945       80.28005
N        -26.40964       24.82664       73.42675
C        -26.25400       23.68854       72.52561
C        -27.42771       23.52532       71.55744
O        -27.75527       24.45110       70.83206
C        -24.89947       23.71091       71.76066
C        -24.61603       22.34356       71.06475
C        -23.72000       24.09961       72.66992
C        -24.41789       21.14176       72.00424
H        -26.40915       24.59060       74.42893
H        -26.21864       22.79918       73.18502
H        -24.95552       24.49282       70.97435
H        -23.69096       22.43573       70.45932
H        -25.44741       22.10018       70.37449
H        -22.77473       24.09611       72.08593
H        -23.85599       25.12688       73.06733
H        -23.62231       23.40774       73.53064
H        -23.55292       21.29898       72.68016
H        -25.31862       20.92510       72.61103
H        -24.21054       20.23476       71.39920
N        -28.03879       22.31519       71.43088
C        -29.07661       22.01504       70.44547
C        -30.29405       21.38484       71.09455
O        -31.12226       20.83825       70.37726
C        -28.49554       21.03188       69.41348
O        -28.08419       19.83298       70.02010
H        -27.70020       21.53427       72.01392
H        -29.39637       22.91824       69.88069
H        -27.65854       21.51467       68.88017
H        -29.24549       20.79601       68.62820
H        -27.09281       19.85487       70.07440
N        -30.46794       21.39900       72.44439
C        -31.47238       20.59248       73.11388
C        -32.60156       21.43322       73.67362
O        -32.34258       22.54947       74.10102
C        -30.78622       19.83947       74.24952
H        -29.83337       21.95466       73.03758
H        -31.87147       19.82897       72.42455
H        -29.98456       19.18385       73.84878
H        -30.34400       20.54905       74.98156
H        -31.52052       19.22310       74.78145
N        -33.87504       20.95088       73.81756
C        -34.33011       19.62838       73.38109
C        -35.62637       19.26253       74.08905
O        -36.57852       20.02156       73.96661
C        -34.59034       19.61675       71.86477
H        -34.54965       21.55923       74.30883
H        -33.56234       18.87173       73.61508
H        -34.92424       18.60350       71.55127
H        -35.38305       20.34826       71.59874
H        -33.69203       19.87330       71.27390
N        -35.79705       18.12609       74.83001
C        -34.79751       17.08219       75.06062
C        -33.63931       17.58724       75.89128
O        -32.50613       17.26143       75.56849
C        -35.41662       15.86620       75.78164
C        -36.48168       15.16639       74.91785
C        -37.06292       13.95070       75.58715
O        -37.91411       13.29685       75.00656
O        -36.66119       13.56876       76.81600
H        -36.73266       17.98800       75.24302
H        -34.41299       16.69926       74.08749
H        -35.85243       16.18231       76.75497
H        -34.60727       15.12666       75.98122
H        -36.01842       14.84789       73.95809
H        -37.31267       15.86553       74.69183
N        -33.84468       18.36542       76.98875
C        -32.74930       18.86239       77.79376
H        -32.06490       19.47774       77.17143
H        -33.14082       19.49828       78.61559
H        -32.18519       18.01343       78.23412
H        -34.80529       18.63159       77.25144
Ca       -28.06264       27.28778       69.35183
O        -30.43729       25.49562       68.83670
H        -30.95954       25.10867       69.58333
H        -30.85830       26.37623       68.67035
O        -29.57208       27.33726       71.80459
H        -29.90817       27.96449       72.49221
H        -29.73565       26.43608       72.18035
O        -29.58954       29.70387       69.46190
H        -29.15448       29.99321       68.62095
H        -29.71743       30.53742       69.97911

Ca 1.0



