%chk=apoCaM-CA-Ng.loop1.water2.frame796.chk
%nprocshared=20
%mem=10GB
%nosave
#b3lyp/svp scf=(tight,noincore,xqc) Test 
#IOP(5/87=12) Density=Current Pop=(MK,readradii) iop(6/33=2) iop(6/42=6)

apoCaM-CA-Ng.loop1.water2.frame796 

   0  1 
C         29.13914      -10.62296       67.21118
C         29.95724      -10.79059       68.45982
O         30.90620      -11.56097       68.43975
H         28.30917       -9.90052       67.36121
H         29.78581      -10.24916       66.38976
H         28.70509      -11.60097       66.91538
N         29.64698      -10.09146       69.58842
C         30.38653      -10.20534       70.84149
C         29.44945      -10.67896       71.93990
O         28.49585       -9.98712       72.26963
C         31.10413       -8.88491       71.19877
C         30.22073       -7.66770       71.23062
O         30.07596       -6.96607       72.36923
O         29.68294       -7.27169       70.20935
H         28.83540       -9.45685       69.55919
H         31.19718      -10.95899       70.73746
H         31.89959       -8.69441       70.44610
H         31.59853       -9.01333       72.18662
N         29.64503      -11.90286       72.50765
C         28.73470      -12.49827       73.47848
C         28.81366      -11.78235       74.82325
O         29.87787      -11.76899       75.42640
C         29.09337      -13.98961       73.65063
C         28.04683      -14.77071       74.45308
C         28.53174      -16.20558       74.68916
C         27.49268      -17.02352       75.46049
N         28.02421      -18.33854       75.81503
H         30.43595      -12.47211       72.16771
H         27.70629      -12.45418       73.05345
H         30.09313      -14.06743       74.13304
H         29.16012      -14.46615       72.64637
H         27.08638      -14.77493       73.89008
H         27.88069      -14.28667       75.43926
H         29.47131      -16.15939       75.28211
H         28.74624      -16.70867       73.71984
H         26.57676      -17.14117       74.83824
H         27.22330      -16.48661       76.39356
H         27.28859      -18.87878       76.32474
H         28.30460      -18.86429       74.95581
H         28.85219      -18.22503       76.44492
N         27.71275      -11.18106       75.35607
C         27.68265      -10.51540       76.66000
C         26.57598      -11.12570       77.50839
O         25.46352      -11.20887       77.00525
C         27.40938       -9.01492       76.46819
C         28.57400       -8.33875       75.79779
O         28.42974       -7.71292       74.61456
O         29.66907       -8.34399       76.33831
H         26.84171      -11.19018       74.80494
H         28.65702      -10.60971       77.16793
H         27.27056       -8.53348       77.46138
H         26.47593       -8.87264       75.88207
N         26.73332      -11.58324       78.78780
C         27.91542      -11.49814       79.63899
C         28.42373      -12.87604       79.97425
O         27.96548      -13.83577       79.37679
H         25.90851      -12.01837       79.22711
H         27.60806      -10.99018       80.57900
H         28.74273      -10.90558       79.21415
N         29.39011      -13.06133       80.91783
C         29.88886      -14.39406       81.24469
C         28.77364      -15.31897       81.75006
O         28.53272      -16.33244       81.10800
C         31.14257      -14.36283       82.16600
C         31.08954      -13.64655       83.49511
O         30.12651      -12.98779       83.84385
O         32.17274      -13.68905       84.29426
H         29.78561      -12.23493       81.39163
H         30.26915      -14.84632       80.29942
H         31.96856      -13.87922       81.60016
H         31.44259      -15.41702       82.35217
N         28.05783      -15.05437       82.88010
C         27.04827      -15.94963       83.42670
C         25.72745      -15.97321       82.68076
O         24.84195      -16.67899       83.14398
H         28.26259      -14.21527       83.42682
H         26.80598      -15.60707       84.45575
H         27.46845      -16.97630       83.50935
N         25.49506      -15.24596       81.54984
C         24.20546      -15.23754       80.85789
C         23.69640      -13.81997       80.66363
O         24.37479      -12.87031       81.03543
C         24.31235      -15.98420       79.50039
C         25.34129      -15.38220       78.54666
O         24.64817      -17.32790       79.72443
H         26.25415      -14.67724       81.15254
H         23.43402      -15.77017       81.45572
H         23.33562      -15.94266       78.96857
H         23.82388      -17.77742       80.04775
H         25.29945      -15.91648       77.57677
H         25.14267      -14.30559       78.36046
H         26.35561      -15.52056       78.96131
N         22.49708      -13.61038       80.04814
C         21.99044      -12.28244       79.72824
C         21.75246      -11.54266       81.03018
O         22.41451      -10.54153       81.26458
C         20.73223      -12.35372       78.80156
C         20.95720      -13.23542       77.53143
C         20.27586      -10.94395       78.38320
C         22.16073      -12.84740       76.66487
H         21.94474      -14.43381       79.77713
H         22.77696      -11.74371       79.15247
H         19.89228      -12.82100       79.36060
H         20.04004      -13.20860       76.90377
H         21.09276      -14.29700       77.81923
H         19.37223      -11.01058       77.73882
H         20.01225      -10.33483       79.27191
H         21.07151      -10.41368       77.81951
H         23.10750      -12.94571       77.23522
H         22.22446      -13.53960       75.79846
H         22.06545      -11.81437       76.27626
N         20.86743      -12.01876       81.95539
C         20.78859      -11.46515       83.30402
C         19.54501      -11.94143       84.03894
O         19.24099      -13.12585       84.03757
C         22.06115      -11.84512       84.10835
C         22.06729      -11.20890       85.50704
O         22.15202      -13.24317       84.22009
H         20.28951      -12.83777       81.71436
H         20.73645      -10.35568       83.23222
H         22.94801      -11.45795       83.55832
H         23.09494      -13.45582       84.44657
H         23.00927      -11.46496       86.03534
H         21.99815      -10.10322       85.42580
H         21.21969      -11.57843       86.12140
N         18.84881      -11.04310       84.78972
C         17.70092      -11.37370       85.62190
C         16.54684      -10.45191       85.27821
O         15.47156      -10.94662       84.96642
C         18.09944      -11.27968       87.11553
C         16.95107      -11.69369       88.04388
O         18.52629       -9.98112       87.43896
H         19.20400      -10.07722       84.82682
H         17.38339      -12.42750       85.45102
H         18.93756      -12.00167       87.26718
H         19.20324      -10.06704       88.16000
H         16.62451      -12.73010       87.81171
H         17.29224      -11.66391       89.10021
H         16.08322      -11.00962       87.93520
N         16.70518       -9.09490       85.28926
C         15.61848       -8.17465       84.98352
C         16.11912       -6.77405       84.65990
O         17.20389       -6.38419       85.07275
C         14.59338       -8.14202       86.14270
C         15.24827       -7.73063       87.47835
C         14.25388       -7.77398       88.64414
C         14.95280       -7.41941       89.96649
N         14.01797       -7.47477       91.08976
H         17.63657       -8.70650       85.48981
H         15.13304       -8.53595       84.04923
H         14.15419       -9.15455       86.26429
H         13.76596       -7.44167       85.89453
H         15.66824       -6.70483       87.39382
H         16.07791       -8.43361       87.70799
H         13.82987       -8.79886       88.72562
H         13.42636       -7.05629       88.45431
H         15.38490       -6.39614       89.89888
H         15.78345       -8.13768       90.15082
H         13.24417       -6.78577       90.94835
H         13.62211       -8.43860       91.18144
H         14.52788       -7.23518       91.97092
N         15.35683       -5.97445       83.86394
C         15.72947       -4.62435       83.46298
C         17.08839       -4.59172       82.75574
O         17.94268       -3.85776       83.23194
C         14.59034       -3.99609       82.62649
C         14.84285       -2.52751       82.26358
C         13.67624       -1.96994       81.49785
O         12.96985       -0.93875       81.99877
O         13.36206       -2.44844       80.41916
H         14.45973       -6.35449       83.52175
H         15.81062       -4.00523       84.38583
H         13.65725       -4.04350       83.23123
H         14.40773       -4.57709       81.70568
H         15.75791       -2.43167       81.64116
H         14.98351       -1.94023       83.19695
N         17.42308       -5.33619       81.65889
C         16.56937       -6.30140       81.00110
H         15.68851       -5.81490       80.54933
H         17.12960       -6.78469       80.17189
H         16.26456       -7.09806       81.70893
H         18.37819       -5.23188       81.28037
Ca        26.48315       -7.61962       73.47377
O         26.99380       -5.60907       70.46919
H         27.93623       -5.49301       70.74691
H         26.75881       -4.74711       70.04313
O         25.06893      -10.16140       72.86876
H         24.75006      -10.76130       73.58878
H         25.11217      -10.73613       72.06405

Ca 1.0



