%chk=apoCaM-CA-Ng.loop1.water0.frame931.chk
%nprocshared=20
%mem=10GB
%nosave
#b3lyp/svp scf=(tight,noincore,xqc) Test 
#IOP(5/87=12) Density=Current Pop=(MK,readradii) iop(6/33=2) iop(6/42=6)

apoCaM-CA-Ng.loop1.water0.frame931 

   0  1 
C         15.09207       22.72055        1.88154
C         15.58075       21.62367        2.77758
O         16.70084       21.17456        2.57756
H         14.07765       23.06282        2.17079
H         15.79207       23.58055        1.93890
H         15.06082       22.35120        0.83432
N         14.78920       21.11955        3.77209
C         15.22689       20.03272        4.64653
C         14.44239       18.71855        4.35246
O         13.98380       18.70517        3.03206
C         15.15621       20.45074        6.13340
C         13.78034       20.79087        6.65934
O         12.78407       20.70159        5.95942
O         13.65117       21.20390        7.93468
H         13.83628       21.49549        3.87973
H         16.29911       19.83362        4.44074
H         15.80060       21.34674        6.26986
H         15.56986       19.63297        6.76163
N         15.28323       17.53268        4.63274
C         14.79983       16.23862        4.08418
C         13.70678       15.61905        4.94688
O         13.90002       15.49087        6.14768
C         15.99728       15.25115        4.01972
C         15.67638       13.87076        3.41265
C         15.32931       13.92411        1.91504
C         15.07453       12.51114        1.37027
N         14.81231       12.53834       -0.06837
H         16.20499       17.71839        4.17296
H         14.45046       16.37004        3.03929
H         16.38040       15.09998        5.05242
H         16.82267       15.69596        3.41962
H         14.85646       13.38433        3.98230
H         16.58730       13.24302        3.52498
H         16.18058       14.38087        1.36316
H         14.42139       14.53803        1.74159
H         14.20076       12.06654        1.89710
H         15.96401       11.87051        1.56201
H         13.97604       13.13127       -0.27443
H         15.64623       12.91308       -0.57693
H         14.62792       11.56401       -0.40007
N         12.57718       15.10973        4.36904
C         11.53966       14.37337        5.09715
C         11.47119       12.94938        4.55713
O         11.28305       12.80870        3.35707
C         10.16658       15.04250        4.88276
C         10.17005       16.48116        5.30022
O          9.94191       17.43707        4.37993
O         10.43502       16.79426        6.44987
H         12.46671       15.20206        3.34705
H         11.75190       14.36318        6.18607
H          9.38891       14.49447        5.45805
H          9.89673       14.99699        3.80417
N         11.61512       11.82406        5.31695
C         11.86177       11.78233        6.74794
C         12.14308       10.35164        7.17801
O         13.08052        9.76827        6.65095
H         11.55053       10.92449        4.82362
H         10.99243       12.21097        7.29237
H         12.76807       12.37948        6.98232
N         11.40478        9.72313        8.13969
C         11.68742        8.34860        8.55773
C         11.32336        7.37583        7.44591
O         10.16007        7.31905        7.06881
C         10.90524        7.99468        9.84552
C         11.24729        6.63878       10.42247
O         12.07653        5.91120        9.89759
O         10.63644        6.23025       11.55040
H         10.65269       10.24941        8.61093
H         12.76899        8.27963        8.81343
H          9.81254        8.03428        9.64531
H         11.14348        8.75056       10.62437
N         12.26487        6.55896        6.88824
C         11.94527        5.57268        5.86424
C         11.48754        6.16844        4.54348
O         11.11436        5.39972        3.67002
H         13.23557        6.60138        7.23360
H         11.15016        4.90313        6.25979
H         12.84185        4.94859        5.65807
N         11.50185        7.51309        4.31442
C         11.04030        8.14960        3.08353
C          9.86029        9.06819        3.42823
O          9.50908        9.15707        4.59813
C         12.28242        8.80446        2.41172
C         12.02932        9.49104        1.07236
O         12.89882        9.71528        3.28359
H         11.86321        8.14174        5.04182
H         10.64501        7.38746        2.37669
H         12.97671        7.95235        2.20705
H         13.88068        9.59292        3.20092
H         11.43549       10.41502        1.20728
H         13.00073        9.79703        0.63057
H         11.52481        8.79653        0.36785
N          9.14592        9.73107        2.46744
C          7.93615       10.49519        2.79637
C          6.77237        9.56661        3.16413
O          5.77243       10.04800        3.67893
C          7.54637       11.51250        1.68277
C          7.12533       10.81755        0.36179
C          8.69336       12.52132        1.48124
C          6.69001       11.80026       -0.72695
H          9.43280        9.64809        1.48741
H          8.17011       11.10754        3.69799
H          6.67150       12.09320        2.05347
H          6.26145       10.15177        0.57415
H          7.94744       10.19687       -0.04776
H          8.40669       13.33324        0.78479
H          8.93050       13.01195        2.44738
H          9.60571       12.02440        1.09233
H          5.86727       12.44943       -0.35996
H          7.54019       12.43126       -1.05840
H          6.33364       11.23481       -1.61279
N          6.85748        8.21889        2.96365
C          5.87898        7.25093        3.44556
C          4.55147        7.33303        2.71393
O          4.52109        7.17867        1.50017
C          6.42728        5.80267        3.29428
C          7.72005        5.57760        4.09435
O          5.46333        4.85914        3.69649
H          7.69444        7.84581        2.49869
H          5.72496        7.41812        4.53489
H          6.64950        5.61601        2.21983
H          5.22575        5.05296        4.64117
H          8.53080        6.25475        3.76301
H          7.54057        5.75061        5.17641
H          8.07132        4.53482        3.95022
N          3.39566        7.44801        3.42926
C          2.08344        7.15886        2.86024
C          0.99001        7.87034        3.64811
O          0.22298        8.61000        3.04778
C          1.87799        5.61661        2.82019
C          0.56606        5.21001        2.13890
O          1.92145        5.08177        4.11887
H          3.47943        7.49494        4.45478
H          2.04287        7.52412        1.80810
H          2.71361        5.18907        2.21658
H          2.20811        4.13451        4.03725
H          0.54046        5.58917        1.09581
H          0.48952        4.10131        2.10790
H         -0.31190        5.60473        2.68887
N          0.86607        7.69702        4.99736
C         -0.18027        8.30753        5.80589
C          0.42072        9.27466        6.80427
O          1.30698        8.89674        7.55883
C         -0.96488        7.22342        6.56676
C         -1.73419        6.29785        5.61817
C         -2.55789        5.27181        6.40368
C         -3.37488        4.38548        5.45565
N         -4.17447        3.41704        6.20463
H          1.54399        7.09998        5.49220
H         -0.90797        8.86213        5.17309
H         -1.70284        7.72668        7.23131
H         -0.27263        6.62654        7.20215
H         -1.02279        5.76589        4.95248
H         -2.42084        6.91367        4.99619
H         -3.25473        5.80522        7.08727
H         -1.87625        4.63762        7.01234
H         -2.68888        3.84403        4.76695
H         -4.05334        5.02389        4.84634
H         -4.84155        3.91507        6.83817
H         -4.72091        2.83209        5.53207
H         -3.55085        2.79435        6.76776
N         -0.08136       10.53726        6.90505
C          0.37291       11.49910        7.89937
C          1.80455       11.95576        7.63578
O          2.60978       11.81667        8.54541
C         -0.61364       12.68422        8.03258
C         -1.97789       12.21039        8.57164
C         -2.91954       13.36197        8.77180
O         -3.98757       13.39238        8.18155
O         -2.60147       14.35551        9.62378
H         -0.86542       10.80247        6.28934
H          0.35723       11.01026        8.90123
H         -0.76608       13.20445        7.06897
H         -0.19165       13.41160        8.76079
H         -1.83654       11.70708        9.55276
H         -2.43446       11.47927        7.87008
N          2.24744       12.49793        6.46252
C          1.45444       12.66415        5.26385
H          0.61096       13.35551        5.43147
H          2.08515       13.10411        4.46186
H          1.09197       11.68027        4.90283
H          3.23771       12.78451        6.40720
Ca        11.79435       18.32668        3.47410

Ca 1.0



