%chk=apoCaM-CA-Ng.loop1.water2.frame902.chk
%nprocshared=20
%mem=10GB
%nosave
#b3lyp/svp scf=(tight,noincore,xqc) Test 
#IOP(5/87=12) Density=Current Pop=(MK,readradii) iop(6/33=2) iop(6/42=6)

apoCaM-CA-Ng.loop1.water2.frame902 

   0  1 
C         89.04171       43.25611       36.38035
C         87.98364       43.08339       37.43107
O         87.94468       43.88604       38.35288
H         90.04689       43.18963       36.84652
H         88.96155       42.48109       35.59013
H         88.93023       44.25474       35.90598
N         87.08095       42.06132       37.35216
C         86.00194       41.86924       38.31488
C         86.13581       40.56614       39.09295
O         86.60301       39.57499       38.56102
C         84.62097       42.10624       37.66498
C         84.20790       41.41530       36.37573
O         84.91091       40.46242       35.72143
O         83.17927       41.80920       35.84970
H         87.14842       41.40272       36.56259
H         86.05361       42.66647       39.09015
H         84.61389       43.18960       37.40563
H         83.82935       41.95328       38.43090
N         85.85243       40.55349       40.42792
C         86.05802       39.40154       41.30665
C         85.09594       38.25669       41.01372
O         83.90410       38.49154       40.87110
C         85.95016       39.82703       42.78887
C         84.53140       40.21503       43.23137
C         84.52969       40.78204       44.64958
C         83.09719       41.11620       45.08042
N         83.08086       41.74672       46.39754
H         85.53692       41.43764       40.85409
H         87.11143       39.05994       41.19011
H         86.64411       40.68338       42.94382
H         86.29906       38.99082       43.43528
H         83.88064       39.31509       43.20554
H         84.11134       40.98271       42.54882
H         85.14868       41.70593       44.66453
H         84.96749       40.04472       45.35834
H         82.49328       40.18101       45.10656
H         82.63706       41.80990       44.34172
H         83.50562       41.10932       47.10926
H         83.61216       42.64729       46.36485
H         82.09051       41.94843       46.66456
N         85.55369       36.97480       40.97955
C         84.71050       35.79743       40.76354
C         84.86308       34.83295       41.93440
O         86.00075       34.60296       42.32124
C         85.17236       35.10608       39.46790
C         84.96309       36.04084       38.31390
O         86.01641       36.58165       37.67501
O         83.83342       36.39520       38.01859
H         86.56479       36.81748       41.11444
H         83.65430       36.08615       40.62514
H         84.59701       34.17115       39.28910
H         86.25007       34.84459       39.55476
N         83.83730       34.14500       42.52871
C         82.42718       34.14714       42.16019
C         81.53036       34.08132       43.38090
O         82.01710       34.11555       44.50312
H         84.10612       33.45447       43.24286
H         82.23241       33.21445       41.58912
H         82.13509       35.00355       41.52995
N         80.18149       33.95801       43.22195
C         79.26052       33.82722       44.34721
C         79.49281       32.50144       45.06370
O         79.33333       31.45139       44.45584
C         77.79900       33.92807       43.85451
C         76.77394       33.94403       44.96273
O         77.13656       33.87522       46.25906
O         75.59049       34.03873       44.68048
H         79.80138       33.96756       42.26235
H         79.43164       34.68656       45.03407
H         77.57695       33.08357       43.16607
H         77.68525       34.87787       43.28778
N         79.87148       32.48952       46.37110
C         80.09946       31.28318       47.15048
C         81.20340       30.42367       46.58812
O         81.03945       29.21150       46.55959
H         80.00298       33.38971       46.85571
H         79.16123       30.69014       47.23843
H         80.40015       31.58553       48.17566
N         82.34546       30.98220       46.09301
C         83.43014       30.18666       45.52494
C         83.37792       30.23050       44.01469
O         82.58792       30.98210       43.45723
C         84.80550       30.62546       46.08895
C         85.21191       32.04677       45.66483
O         84.77110       30.54112       47.48946
H         82.40698       32.00843       46.05124
H         83.28082       29.11789       45.79538
H         85.57445       29.92091       45.69531
H         85.71403       30.54125       47.80091
H         86.20469       32.30066       46.09097
H         85.30285       32.10152       44.56273
H         84.48652       32.80878       46.01578
N         84.14592       29.37534       43.28471
C         84.02716       29.26168       41.83900
C         82.99680       28.19481       41.50510
O         82.28137       28.36840       40.52949
C         85.40773       29.02395       41.16453
C         86.49452       30.00984       41.67266
C         85.29444       29.08365       39.62819
C         86.17340       31.49090       41.46798
H         84.73691       28.69275       43.78520
H         83.62668       30.21836       41.43380
H         85.76238       28.00523       41.43805
H         87.45852       29.78106       41.16842
H         86.65166       29.84556       42.76039
H         84.60132       28.30418       39.25072
H         84.91687       30.07231       39.29145
H         86.28624       28.90551       39.16093
H         85.24650       31.76394       42.00752
H         87.00238       32.10117       41.88328
H         86.06174       31.74112       40.39435
N         82.80631       27.10909       42.31932
C         81.74016       26.13441       42.10476
C         82.33834       24.76738       41.82728
O         83.53046       24.57702       42.01621
C         80.80146       26.09886       43.33965
C         80.25877       27.49396       43.68280
O         79.72339       25.23236       43.09465
H         83.41198       26.97148       43.14039
H         81.14431       26.42108       41.21146
H         81.39097       25.72730       44.21110
H         79.30409       25.03492       43.97307
H         79.60010       27.43394       44.57549
H         81.08908       28.18949       43.92694
H         79.67652       27.90807       42.83347
N         81.55955       23.78596       41.28874
C         82.07899       22.48266       40.89838
C         82.19772       22.45214       39.39157
O         83.30259       22.26685       38.89601
C         81.19484       21.34117       41.47007
C         81.72506       19.95954       41.07368
O         79.86475       21.44833       41.02831
H         80.58056       24.00783       41.05875
H         83.10302       22.33344       41.30828
H         81.22932       21.39260       42.58442
H         79.36166       21.95748       41.71606
H         81.70399       19.83092       39.96973
H         82.76688       19.82564       41.43298
H         81.08909       19.16844       41.52469
N         81.10990       22.64167       38.59805
C         81.16344       22.62075       37.14574
C         80.70743       23.96184       36.59462
O         80.15410       24.76686       37.33521
C         80.34394       21.39555       36.69258
C         80.18540       21.19438       35.18361
C         79.61814       19.79183       34.91470
C         79.30570       19.57281       33.43201
N         78.90083       18.18746       33.18961
H         80.18891       22.79877       39.03533
H         82.21127       22.48245       36.79875
H         79.32604       21.42988       37.14208
H         80.87144       20.51058       37.11638
H         81.16985       21.27079       34.67488
H         79.50187       21.97788       34.78878
H         78.68603       19.63015       35.50010
H         80.37533       19.04533       35.24478
H         80.20279       19.80038       32.81581
H         78.48422       20.26089       33.13094
H         78.07503       17.93721       33.78081
H         78.64600       18.07427       32.18226
H         79.69593       17.54330       33.40897
N         80.98440       24.30317       35.30532
C         80.63731       25.59814       34.73443
C         81.31865       26.74837       35.48639
O         80.58797       27.58492       35.99716
C         80.89553       25.60422       33.21098
C         80.46741       26.92207       32.55020
C         80.55504       26.82480       31.05441
O         79.44653       26.98315       30.30569
O         81.62437       26.60116       30.50971
H         81.47387       23.61803       34.70917
H         79.53563       25.72736       34.84154
H         80.28931       24.77951       32.77436
H         81.95128       25.38975       32.96502
H         81.11406       27.75486       32.90231
H         79.41568       27.14810       32.82954
N         82.66857       26.89433       35.64771
C         83.68035       25.99106       35.14657
H         84.68353       26.34412       35.47068
H         83.52956       24.97140       35.55427
H         83.69078       25.98225       34.04286
H         83.00337       27.70575       36.19219
Ca        85.58429       38.43333       36.45554
O         82.74430       38.94904       37.56813
H         83.43628       39.17976       38.23799
H         81.97285       39.52313       37.79944
O         88.65784       38.18653       36.37640
H         88.34552       38.50795       35.49333
H         89.42397       38.77325       36.59722

Ca 1.0



