%chk=apoCaM-CA-Ng.loop4.water4.frame739.chk
%nprocshared=20
%mem=10GB
%nosave
#b3lyp/svp scf=(tight,noincore,xqc) Test 
#IOP(5/87=12) Density=Current Pop=(MK,readradii) iop(6/33=2) iop(6/42=6)

apoCaM-CA-Ng.loop4.water4.frame739 

   -3  1 
C         24.72029       19.45830      -12.91830
C         26.10365       19.01034      -13.28156
O         26.26380       17.89569      -13.75536
H         23.97877       18.65585      -13.11964
H         24.67577       19.72822      -11.84700
H         24.45318       20.35023      -13.52342
N         27.15753       19.86173      -13.12635
C         28.52729       19.55581      -13.53602
C         28.53274       19.21483      -15.01247
O         29.03059       18.17593      -15.42203
C         29.14819       18.47090      -12.63243
C         29.13644       18.93937      -11.20475
O         29.75020       19.94417      -10.88089
O         28.40464       18.28520      -10.28668
H         26.97290       20.80571      -12.75295
H         29.13612       20.48041      -13.41681
H         30.19756       18.26553      -12.93637
H         28.57129       17.52542      -12.71808
N         27.89241       20.06353      -15.85771
C         27.69736       19.82213      -17.27911
C         29.01345       19.94315      -18.04233
O         29.73930       20.89624      -17.79853
C         26.60289       20.77991      -17.86321
C         26.98494       22.28659      -17.77551
C         25.24917       20.48982      -17.17659
C         25.93602       23.22642      -18.36997
H         27.45007       20.88925      -15.43283
H         27.27723       18.80222      -17.39685
H         26.47774       20.52069      -18.93840
H         27.92208       22.45647      -18.34204
H         27.15359       22.60079      -16.72590
H         24.42023       21.03725      -17.66728
H         25.00457       19.41274      -17.25813
H         25.26492       20.76006      -16.10075
H         24.98937       23.18823      -17.79326
H         26.31051       24.27046      -18.31738
H         25.73973       22.96768      -19.43113
N         29.37801       19.08810      -19.04422
C         28.57445       17.95627      -19.48536
C         28.65871       16.77576      -18.54051
O         27.73251       15.98202      -18.53097
C         28.94519       17.50010      -20.92092
C         30.35428       16.99621      -21.13905
O         30.67766       16.60460      -22.24857
O         31.26692       16.97457      -20.15055
H         30.23587       19.31468      -19.57079
H         27.51542       18.28631      -19.57539
H         28.77964       18.35291      -21.61356
H         28.24753       16.68613      -21.21630
N         29.77542       16.53645      -17.79491
C         30.01027       15.27669      -17.11402
C         30.25555       14.20012      -18.15015
O         31.39840       14.03254      -18.55319
H         30.53084       17.23638      -17.76471
H         29.18653       15.02584      -16.41186
H         30.94054       15.37197      -16.51028
N         29.22686       13.45955      -18.65533
C         29.39714       12.47045      -19.72086
C         28.53397       12.74712      -20.95714
O         28.70216       12.03057      -21.93484
C         29.17880       11.03901      -19.17329
C         27.84549       10.74205      -18.52983
O         27.61096        9.50361      -18.05845
O         26.98749       11.59658      -18.39668
H         28.29091       13.60400      -18.25548
H         30.44661       12.49699      -20.08928
H         29.95806       10.84209      -18.40651
H         29.33381       10.31630      -20.00360
N         27.60305       13.74735      -21.00983
C         26.76232       13.99821      -22.17278
C         25.46602       13.21429      -22.13355
O         24.69060       13.33595      -23.07026
H         27.41831       14.32042      -20.18370
H         27.30647       13.72666      -23.10459
H         26.54347       15.08529      -22.23682
N         25.18851       12.34868      -21.11288
C         24.07220       11.41097      -21.08354
C         22.70894       12.06895      -20.91286
O         21.72194       11.34696      -20.94594
C         24.14143       10.45461      -22.30094
C         25.53328        9.79043      -22.39746
C         25.67074        8.80591      -23.52930
N         26.85978        8.19320      -23.73586
O         24.72590        8.55785      -24.26410
H         25.85128       12.26785      -20.33947
H         24.19473       10.76619      -20.18373
H         23.92872       10.99906      -23.24465
H         23.36798        9.66458      -22.18121
H         25.75728        9.26210      -21.44556
H         26.30390       10.57480      -22.55351
H         27.66803        8.39881      -23.12918
H         26.97767        7.51813      -24.50542
N         22.56900       13.40290      -20.64633
C         21.27234       14.04017      -20.41301
C         21.13812       14.56359      -18.98368
O         20.09879       15.13911      -18.68864
C         21.01923       15.17643      -21.44770
C         22.01035       16.34636      -21.31816
C         21.03181       14.62844      -22.88146
H         23.40850       13.99239      -20.56908
H         20.44815       13.30400      -20.54105
H         19.99971       15.58452      -21.26335
H         23.05097       16.02564      -21.52818
H         21.74323       17.14827      -22.03911
H         21.96588       16.78505      -20.29934
H         20.27697       13.82072      -22.99009
H         20.77891       15.43545      -23.60205
H         22.03125       14.22245      -23.14346
N         22.11645       14.39961      -18.03966
C         22.01378       14.94194      -16.68502
C         21.96883       13.83829      -15.64236
O         22.08693       12.66726      -15.97826
C         23.19601       15.89671      -16.42800
C         23.15912       17.07527      -17.36540
N         22.14876       17.97496      -17.30084
O         24.05385       17.22423      -18.18373
H         22.97605       13.88240      -18.27436
H         21.06319       15.50499      -16.56168
H         24.14474       15.33106      -16.56469
H         23.18069       16.29007      -15.38953
H         21.39437       17.87242      -16.60598
H         22.12589       18.78552      -17.93688
N         21.70925       14.16477      -14.34286
C         21.50592       13.17511      -13.28180
C         20.87102       13.80724      -12.04037
O         20.61149       15.00306      -12.04409
C         22.81793       12.43398      -12.91619
C         23.78318       13.26091      -12.09300
C         24.45462       14.36839      -12.63545
C         24.01687       12.91150      -10.74905
C         25.34475       15.10563      -11.84501
C         24.89852       13.65395       -9.96360
C         25.56780       14.75073      -10.50751
O         26.41930       15.45436       -9.73562
H         21.56332       15.16455      -14.13994
H         20.77772       12.42403      -13.66044
H         23.32680       12.03054      -13.81602
H         22.52468       11.54536      -12.31835
H         24.30034       14.65566      -13.66677
H         23.50924       12.06673      -10.30065
H         25.86406       15.95055      -12.26813
H         25.06012       13.37650       -8.92926
H         26.89848       16.22342      -10.07088
N         20.60157       13.06205      -10.92754
C         20.02593       13.63882       -9.71826
C         21.03426       13.53413       -8.58746
O         21.18840       12.44624       -8.04876
C         18.72208       12.90930       -9.33736
C         17.65429       12.99656      -10.43385
C         16.41980       12.24322      -10.02781
O         15.24386       12.88725       -9.90682
O         16.47449       11.04215       -9.81288
H         20.83255       12.05752      -10.92099
H         19.76935       14.69912       -9.87930
H         18.31648       13.35405       -8.40119
H         18.95040       11.83634       -9.14668
H         18.03730       12.55727      -11.38004
H         17.39989       14.06323      -10.61419
N         21.83482       14.56810       -8.19298
C         21.91895       15.87281       -8.84560
C         20.70322       16.73234       -8.54932
O         20.39756       16.94855       -7.38411
C         23.19776       16.59317       -8.37344
C         23.55895       17.79978       -9.25467
C         24.86010       18.42446       -8.82949
O         25.30455       19.37780       -9.44622
O         25.55057       17.94019       -7.77872
H         22.51540       14.36126       -7.44360
H         22.04908       15.70223       -9.93635
H         24.04133       15.87721       -8.45030
H         23.10251       16.89228       -7.30564
H         22.75487       18.56416       -9.21167
H         23.67049       17.45684      -10.30790
N         19.97920       17.28634       -9.56029
C         18.82882       18.12830       -9.31142
H         18.04680       17.55372       -8.77141
H         19.12643       19.01064       -8.70493
H         18.40648       18.48810      -10.27385
H         20.25961       17.12219      -10.53796
Ca        28.17225       19.18288       -8.23204
O         30.88713       18.28944       -7.77456
H         31.45937       18.59881       -8.52075
H         31.21707       18.78440       -6.98315
O         29.31000       21.73316       -7.27225
H         30.16706       21.35672       -6.94940
H         29.31519       22.67265       -6.96109
O         28.05197       18.05885       -5.46171
H         28.86846       17.53322       -5.65488
H         27.31112       17.49493       -5.79789
O         26.03429       20.90015       -6.53575
H         25.15548       20.44915       -6.60256
H         26.30011       20.78422       -5.58916

Ca 1.0



