%chk=apoCaM-CA-Ng.loop4.water2.frame252.chk
%nprocshared=20
%mem=10GB
%nosave
#b3lyp/svp scf=(tight,noincore,xqc) Test 
#IOP(5/87=12) Density=Current Pop=(MK,readradii) iop(6/33=2) iop(6/42=6)

apoCaM-CA-Ng.loop4.water2.frame252 

   -3  1 
C         31.33071       41.47799       13.42582
C         31.28550       42.68645       14.35263
O         32.39796       43.48560       14.06953
H         32.28024       40.92357       13.58193
H         30.48080       40.79701       13.63550
H         31.28085       41.81245       12.36661
N         30.02262       43.42392       14.17881
C         29.82390       44.58949       15.06527
C         30.75958       45.74176       14.74801
O         31.69733       45.97864       15.48447
C         29.49591       44.29313       16.56729
C         30.36290       43.42361       17.46738
O         31.63128       43.73163       17.80645
O         29.84589       42.45848       18.00852
H         29.22549       42.76332       14.33349
H         28.84783       45.02904       14.75449
H         28.49672       43.79946       16.56165
H         29.35405       45.26993       17.07859
N         30.52516       46.50048       13.62958
C         31.29875       47.65309       13.15652
C         31.01400       48.91148       13.99468
O         30.53290       49.87543       13.41288
C         32.78244       47.28881       12.82966
C         33.48646       48.49637       12.14305
C         32.79361       46.06067       11.88920
C         34.85701       48.19619       11.51729
H         29.73023       46.22535       13.03194
H         30.87197       47.90894       12.15743
H         33.32987       47.01488       13.75451
H         33.59967       49.31047       12.89092
H         32.85090       48.87416       11.31266
H         32.29963       46.30004       10.92310
H         33.82746       45.70854       11.69648
H         32.25959       45.20398       12.33681
H         35.57141       47.78383       12.24618
H         34.76331       47.47865       10.67540
H         35.28369       49.13095       11.09816
N         31.16025       48.96444       15.35107
C         30.60998       50.05399       16.15225
C         31.48124       51.30525       16.12486
O         30.94819       52.33949       15.74761
C         30.25336       49.58169       17.58580
C         29.20803       48.48643       17.61150
O         28.78460       48.00652       18.79590
O         28.72921       48.03550       16.58144
H         31.51550       48.15590       15.85964
H         29.61583       50.33644       15.72998
H         29.83595       50.44375       18.15071
H         31.13893       49.20772       18.12613
N         32.79856       51.35863       16.49030
C         33.60271       50.21041       16.89072
C         35.05379       50.57259       17.21292
O         35.38759       51.74820       17.17175
H         33.24416       52.28680       16.43824
H         33.60004       49.49524       16.04930
H         33.15602       49.76839       17.78688
N         36.02012       49.65092       17.53002
C         35.87992       48.19937       17.62349
C         35.39538       47.62212       16.30511
O         34.30135       47.07629       16.27120
C         35.02021       47.78706       18.84649
C         35.06797       46.30015       19.08186
O         34.04212       45.63838       19.06120
O         36.24471       45.69501       19.33353
H         36.96998       50.01660       17.70320
H         36.88530       47.77003       17.83159
H         33.96631       48.08821       18.73054
H         35.42263       48.28129       19.75635
N         36.12595       47.67078       15.15420
C         37.49718       48.13985       15.01255
C         37.64741       49.19484       13.93776
O         36.67832       49.85442       13.58897
H         35.69773       47.25689       14.31789
H         38.08963       47.25666       14.69093
H         37.94953       48.50604       15.95410
N         38.86287       49.36737       13.33678
C         39.13184       50.34555       12.28505
C         39.42717       49.68742       10.93919
O         39.66395       50.42697        9.99342
C         40.37226       51.18681       12.66599
C         40.21038       52.01488       13.94738
C         41.47377       52.78077       14.28743
N         41.50553       53.58510       15.37352
O         42.47426       52.67927       13.59004
H         39.64116       48.75398       13.62681
H         38.25579       51.01424       12.13406
H         40.60535       51.89543       11.83945
H         41.23861       50.49638       12.78596
H         39.96578       51.34697       14.80008
H         39.37849       52.73787       13.80509
H         40.67599       53.69011       15.97469
H         42.36297       54.10638       15.61173
N         39.45960       48.33136       10.76457
C         39.85184       47.70874        9.49582
C         41.14381       46.91003        9.63551
O         41.62717       46.43603        8.61549
C         38.71078       46.84220        8.89813
C         37.47479       47.69879        8.59191
C         38.32818       45.67605        9.80961
H         39.23729       47.71599       11.55812
H         40.08128       48.49295        8.74157
H         39.06332       46.41386        7.93342
H         36.68123       47.07545        8.12670
H         37.06914       48.15560        9.51839
H         37.73891       48.50909        7.87989
H         39.20437       45.02691       10.01828
H         37.93783       46.06974       10.75962
H         37.53931       45.05490        9.33498
N         41.78188       46.74518       10.83484
C         43.07645       46.08889       10.96325
C         43.03064       44.82846       11.82245
O         43.47784       43.80022       11.33251
C         44.17465       47.09609       11.40887
C         43.99436       47.90082       12.68188
N         44.97502       48.74850       13.07048
O         42.98299       47.82041       13.35701
H         41.36610       47.13282       11.68957
H         43.43418       45.74774        9.96489
H         44.29156       47.84211       10.59230
H         45.13218       46.53527       11.48750
H         45.83984       48.84223       12.51797
H         44.87278       49.31003       13.92913
N         42.57338       44.82094       13.10934
C         42.76112       43.68481       14.00877
C         41.45797       43.15520       14.58674
O         40.67963       43.92040       15.13688
C         43.69627       44.11248       15.15853
C         45.07282       44.47963       14.64835
C         45.86825       43.51689       14.00000
C         45.57823       45.77907       14.81787
C         47.13795       43.85019       13.52310
C         46.85066       46.11065       14.33922
C         47.63356       45.15002       13.69011
O         48.85750       45.48483       13.23415
H         42.15341       45.66819       13.50651
H         43.26243       42.84326       13.48779
H         43.81341       43.27476       15.88066
H         43.23509       44.96702       15.70233
H         45.50887       42.50510       13.86308
H         44.98824       46.53800       15.31577
H         47.73491       43.09636       13.02497
H         47.22853       47.11638       14.47256
H         49.42931       44.84818       12.78138
N         41.24046       41.80249       14.58616
C         40.16453       41.07365       15.26330
C         38.81454       41.13878       14.56775
O         37.96830       40.31593       14.89116
C         40.09139       41.45658       16.76479
C         39.18697       40.54197       17.60758
C         39.19534       40.96483       19.04863
O         38.15615       41.29499       19.59771
O         40.34716       40.97432       19.74600
H         41.96673       41.20764       14.15801
H         40.45890       40.00057       15.20172
H         39.72842       42.50074       16.87016
H         41.12103       41.39793       17.18125
H         39.54793       39.49368       17.53741
H         38.14062       40.58664       17.24439
N         38.51483       42.05412       13.60819
C         37.20719       42.06835       12.96622
C         37.05755       40.84589       12.08533
O         36.06911       40.13600       12.21089
C         36.96374       43.36709       12.17369
C         37.12971       44.63954       13.03575
C         36.35891       44.59527       14.31825
O         35.14525       44.48921       14.30259
O         37.00941       44.69078       15.49351
H         39.20635       42.76606       13.34433
H         36.41370       42.04978       13.74743
H         35.92001       43.33505       11.78771
H         37.64977       43.42858       11.30450
H         36.77595       45.52071       12.46861
H         38.20317       44.79041       13.27494
N         38.03959       40.50911       11.20385
C         37.96180       39.32430       10.37776
H         38.90080       39.20692        9.79561
H         37.83007       38.42240       11.01420
H         37.10928       39.41030        9.67269
H         38.88952       41.09049       11.14344
Ca        33.09030       43.87373       16.15988
O         35.84823       43.22619       17.69250
H         36.26853       42.60749       17.04389
H         36.18824       42.93154       18.57380
O         33.70948       41.12338       17.77287
H         32.75760       40.90558       17.61026
H         34.16811       40.87866       16.92997

Ca 1.0



