%chk=apoCaM-CA-Ng.loop1.water4.frame352.chk
%nprocshared=20
%mem=10GB
%nosave
#b3lyp/svp scf=(tight,noincore,xqc) Test 
#IOP(5/87=12) Density=Current Pop=(MK,readradii) iop(6/33=2) iop(6/42=6)

apoCaM-CA-Ng.loop1.water4.frame352 

   0  1 
C         63.41098       98.80028       53.33092
C         63.63220      100.19227       52.81523
O         64.74785      100.53624       52.45252
H         62.65343       98.28817       52.69826
H         64.35047       98.20975       53.30484
H         63.03573       98.84355       54.37450
N         62.57668      101.04271       52.72241
C         62.66701      102.38058       52.14753
C         63.32168      103.40714       53.06989
O         63.35317      104.55659       52.67523
C         61.24964      102.87292       51.76684
C         60.60596      101.97065       50.74864
O         59.44833      101.34554       51.03450
O         61.12501      101.80832       49.65510
H         61.64798      100.68019       52.99210
H         63.24767      102.33544       51.20018
H         61.30301      103.88641       51.31639
H         60.61449      102.93029       52.67804
N         63.82225      103.12482       54.30697
C         64.30703      104.18077       55.20493
C         65.73154      103.95821       55.65812
O         66.10066      102.80325       55.82002
C         63.39864      104.20194       56.44806
C         61.98710      104.68080       56.09134
C         61.07592      104.65511       57.32429
C         59.66752      105.19131       57.02484
N         59.66274      106.64069       56.81109
H         63.79601      102.15833       54.66181
H         64.27124      105.16185       54.70835
H         63.80778      104.88864       57.21744
H         63.36750      103.18541       56.89938
H         61.54486      104.02888       55.30733
H         62.06861      105.70740       55.68386
H         61.51958      105.24150       58.15872
H         60.98783      103.59601       57.65074
H         59.01657      104.96962       57.89816
H         59.24410      104.66621       56.13954
H         59.98411      107.12927       57.67803
H         60.28172      106.91323       56.02031
H         58.68899      106.95038       56.59079
N         66.58473      104.97091       56.03092
C         66.43465      106.43540       55.92459
C         65.18628      107.02308       56.58372
O         64.16242      107.13106       55.92763
C         66.65522      106.96087       54.49265
C         68.04227      106.64521       54.00499
O         68.92730      106.03077       54.81631
O         68.36244      106.91875       52.85903
H         67.48230      104.66291       56.43891
H         67.30261      106.86505       56.45393
H         66.55225      108.06638       54.47308
H         65.90619      106.51534       53.80478
N         65.19083      107.52513       57.85202
C         66.37787      107.52503       58.68854
C         66.20179      108.22359       60.02215
O         65.10048      108.64251       60.34755
H         64.31451      107.93955       58.20386
H         67.16221      108.08758       58.15185
H         66.71319      106.47854       58.85835
N         67.26134      108.43914       60.85897
C         68.63701      108.02580       60.57176
C         69.53848      109.22701       60.34402
O         69.17616      110.34000       60.70239
C         69.16334      107.05839       61.64960
C         69.22954      107.60829       63.05406
O         68.93006      108.76404       63.30841
O         69.62807      106.79883       64.05284
H         67.07634      108.95779       61.73005
H         68.67351      107.45683       59.62379
H         70.17956      106.71155       61.36420
H         68.49054      106.17339       61.66176
N         70.68243      109.07553       59.61352
C         71.51682      110.18338       59.16853
C         70.68762      111.18752       58.40038
O         70.69934      112.35913       58.74883
H         70.93571      108.13172       59.28212
H         72.31156      109.78481       58.50096
H         72.00543      110.67368       60.03844
N         69.85721      110.76380       57.40622
C         68.85840      111.62522       56.77673
C         67.51096      111.31731       57.42097
O         67.45789      110.44879       58.27471
C         68.87204      111.40556       55.24229
C         70.23800      111.76063       54.64578
O         67.89767      112.20445       54.62494
H         69.82284      109.75402       57.19378
H         69.06827      112.69549       56.99435
H         68.65290      110.32803       55.04790
H         67.68470      111.77979       53.75282
H         70.47080      112.83092       54.83381
H         71.03988      111.13250       55.08571
H         70.22504      111.58845       53.54858
N         66.38885      112.02985       57.12029
C         65.10716      111.79619       57.78825
C         64.02949      111.35918       56.80550
O         62.89555      111.19469       57.23966
C         64.67268      113.07606       58.57535
C         64.25553      114.24183       57.63468
C         65.78561      113.49606       59.55629
C         63.73517      115.47492       58.37610
H         66.44547      112.78859       56.42926
H         65.19677      110.97866       58.53693
H         63.77878      112.80403       59.18133
H         63.42447      113.89452       56.98498
H         65.09850      114.55034       56.98317
H         66.69126      113.83148       59.00646
H         65.45103      114.32161       60.21595
H         66.06170      112.64476       60.21364
H         64.53740      115.95271       58.97360
H         63.37699      116.22320       57.63778
H         62.88830      115.20101       59.04078
N         64.28506      111.19117       55.47259
C         63.23332      110.97950       54.48410
C         63.38376      109.66856       53.72808
O         64.48871      109.17146       53.56868
C         63.16546      112.19282       53.52069
C         64.44908      112.39798       52.70307
O         62.92499      113.36693       54.25379
H         65.24934      111.27947       55.12603
H         62.24518      110.93576       54.99282
H         62.33645      112.03794       52.79276
H         61.99049      113.31768       54.58471
H         65.31641      112.61835       53.35840
H         64.67612      111.50420       52.08636
H         64.32225      113.26715       52.02415
N         62.26814      109.05056       53.24498
C         62.26325      107.76374       52.54228
C         63.02207      107.80684       51.21097
O         63.48857      108.86217       50.80722
C         60.79593      107.27753       52.30881
C         59.96013      108.21147       51.40930
O         60.14705      107.05117       53.53522
H         61.36793      109.51114       53.43947
H         62.76309      107.01678       53.19618
H         60.81712      106.29604       51.79540
H         59.81280      107.91694       53.88528
H         58.94731      107.77928       51.26565
H         59.83564      109.21751       51.86012
H         60.43595      108.32760       50.41420
N         63.14548      106.66494       50.46503
C         63.74966      106.58331       49.13975
C         64.94839      105.61122       49.10294
O         65.51659      105.42525       48.03693
C         62.60723      106.18794       48.16989
C         62.97116      106.27619       46.67797
C         61.74898      106.12896       45.75320
C         61.07753      104.74830       45.82541
N         59.96286      104.66662       44.88029
H         62.72600      105.79823       50.81658
H         64.12302      107.58335       48.83041
H         61.77919      106.91304       48.34025
H         62.23308      105.17297       48.42549
H         63.72606      105.51191       46.40544
H         63.40078      107.28360       46.48713
H         62.09396      106.29540       44.70963
H         61.00377      106.91801       45.99770
H         60.69145      104.55977       46.85000
H         61.82433      103.96186       45.57827
H         59.23841      105.38402       45.11478
H         60.30527      104.82016       43.90380
H         59.52931      103.71706       44.93956
N         65.43518      105.00664       50.22955
C         66.61703      104.13853       50.24666
C         66.39156      102.84545       49.48784
O         65.51563      102.07624       49.85708
C         67.02151      103.82843       51.70932
C         68.25022      102.91029       51.92456
C         69.50928      103.29262       51.17118
O         69.56805      103.13239       49.96639
O         70.60041      103.76017       51.80697
H         64.99806      105.22694       51.12983
H         67.46171      104.70253       49.79603
H         66.16398      103.36264       52.24584
H         67.22230      104.79581       52.20142
H         67.99728      101.86522       51.64475
H         68.45290      102.90859       53.01776
N         67.20868      102.52029       48.44595
C         67.16852      101.24937       47.75404
H         68.15153      100.74401       47.87859
H         66.38338      100.57354       48.15121
H         66.99139      101.42004       46.67320
H         67.93200      103.18894       48.14382
Ca        70.32766      104.64539       53.82042
O         72.50352      102.79092       54.47349
H         73.06976      102.35689       55.15936
H         72.51956      102.16976       53.70268
O         74.00545      105.57751       54.70411
H         74.65629      106.28318       54.46144
H         74.47299      105.03159       55.38521
O         72.65878      105.92104       51.76738
H         71.97063      105.96131       51.05635
H         73.22901      105.15080       51.51772
O         71.77707      107.98526       54.54398
H         72.22805      108.75066       54.98140
H         71.67424      108.26426       53.59946

Ca 1.0



