%chk=apoCaM-CA-Ng.loop2.water3.frame675.chk
%nprocshared=20
%mem=10GB
%nosave
#b3lyp/svp scf=(tight,noincore,xqc) Test 
#IOP(5/87=12) Density=Current Pop=(MK,readradii) iop(6/33=2) iop(6/42=6)

apoCaM-CA-Ng.loop2.water3.frame675 

   -2  1 
C        -19.40613       46.91819       70.98436
C        -20.75370       46.25053       71.02516
O        -21.22403       45.80266       69.98965
H        -18.64311       46.20269       70.61252
H        -19.44190       47.79631       70.30572
H        -19.09383       47.26900       71.99128
N        -21.44273       46.15943       72.19670
C        -22.75644       45.53233       72.31280
C        -22.67179       44.04726       72.01333
O        -21.82976       43.37550       72.59340
C        -23.31097       45.72818       73.73728
C        -24.70864       45.18298       73.86053
O        -24.97346       44.19208       74.73241
O        -25.60765       45.63309       73.16731
H        -21.01879       46.57299       73.04220
H        -23.45985       46.03810       71.61348
H        -23.34008       46.81282       73.97796
H        -22.64379       45.22613       74.47245
N        -23.55918       43.45171       71.16476
C        -23.50825       42.01860       70.87667
C        -22.27029       41.71416       70.04822
O        -21.71797       42.65357       69.48957
C        -24.76759       41.60186       70.10486
H        -24.30506       44.02867       70.74492
H        -23.49712       41.47594       71.84357
H        -24.78324       40.51528       69.89900
H        -25.67050       41.84718       70.70422
H        -24.82901       42.14560       69.13709
N        -21.74359       40.46937       69.85745
C        -22.14588       39.19603       70.47266
C        -21.95355       39.16805       71.99305
O        -21.48852       40.13825       72.57312
C        -21.29086       38.05517       69.82718
C        -19.78871       38.24805       69.98707
O        -19.32156       39.30573       70.68423
O        -19.01057       37.47970       69.44621
H        -20.95136       40.44205       69.19581
H        -23.21085       38.98976       70.24614
H        -21.51744       38.04272       68.73877
H        -21.57974       37.06092       70.22600
N        -22.23485       38.02821       72.69103
C        -21.90857       37.83949       74.09710
C        -22.77423       38.62928       75.05218
O        -23.69050       39.30850       74.61426
H        -22.60963       37.21170       72.18646
H        -20.84203       38.08163       74.25408
H        -22.05773       36.76678       74.34499
N        -22.58127       38.56112       76.40598
C        -21.48400       37.82936       77.04635
C        -20.20008       38.66258       76.97639
O        -20.24788       39.76841       76.44891
C        -21.92584       37.42465       78.47958
C        -21.03407       36.41136       79.16105
N        -20.59601       36.60601       80.42713
O        -20.74127       35.37777       78.57709
H        -23.24616       39.06973       77.01156
H        -21.32825       36.87163       76.50632
H        -22.90932       36.91722       78.37610
H        -22.07513       38.32409       79.11582
H        -20.86449       37.44594       80.95923
H        -20.01350       35.89282       80.89217
N        -19.01295       38.20180       77.46633
C        -17.76333       38.94646       77.38171
C        -16.70580       38.10109       76.71201
O        -16.37709       37.04978       77.24294
H        -18.97706       37.28123       77.92308
H        -17.41586       39.20011       78.40508
H        -17.89838       39.90513       76.83310
N        -16.11015       38.51349       75.55840
C        -15.10280       37.74673       74.81620
C        -14.45818       38.64437       73.77399
O        -15.15633       39.37985       73.08776
C        -15.69962       36.47154       74.14817
C        -14.68440       35.75195       73.24774
O        -16.11190       35.55232       75.12639
H        -16.38351       39.44244       75.19963
H        -14.29602       37.42923       75.51462
H        -16.55210       36.75533       73.48970
H        -17.09734       35.62460       75.21207
H        -14.38219       36.39518       72.39438
H        -13.77883       35.46711       73.82495
H        -15.14136       34.83288       72.82379
N        -13.11207       38.59044       73.57519
C        -12.40476       39.46447       72.65448
C        -12.17349       38.74153       71.34358
O        -11.48285       37.73227       71.30813
C        -11.10246       39.98887       73.32511
C        -10.22920       40.78351       72.31879
C        -11.48094       40.83667       74.55797
C         -8.94312       41.34740       72.92454
H        -12.56311       37.87784       74.08230
H        -13.03159       40.35434       72.42860
H        -10.50223       39.11740       73.67124
H        -10.80773       41.61203       71.87357
H         -9.92814       40.10463       71.49240
H        -10.58425       41.15535       75.12421
H        -12.04960       41.73759       74.24893
H        -12.10631       40.25139       75.26472
H         -8.33712       40.53329       73.37534
H         -8.34699       41.83949       72.12785
H         -9.16530       42.11552       73.69315
N        -12.74711       39.24360       70.21284
C        -12.60977       38.68708       68.88009
C        -11.96506       39.68758       67.93308
O        -11.81090       39.34026       66.76962
C        -14.00710       38.33810       68.33248
C        -14.74110       37.37306       69.21554
O        -15.90740       37.73619       69.78197
O        -14.29195       36.25667       69.41763
H        -13.33396       40.08172       70.29184
H        -11.98009       37.76936       68.89818
H        -13.91916       37.89388       67.31669
H        -14.60125       39.27493       68.24861
N        -11.54392       40.92927       68.33826
C        -10.91286       41.86540       67.42057
C        -11.52834       43.26357       67.56841
O        -10.79846       44.19314       67.88696
C         -9.39212       41.84480       67.71355
C         -8.56581       42.29140       66.53475
C         -7.78448       43.45576       66.58082
C         -8.54381       41.49287       65.37532
C         -6.99965       43.81629       65.47813
C         -7.75328       41.85082       64.28281
C         -6.98191       43.01300       64.33276
H        -11.59872       41.20477       69.32909
H        -11.06415       41.52253       66.37595
H         -9.06528       40.80079       67.91685
H         -9.17938       42.42254       68.64053
H         -7.78234       44.08142       67.46410
H         -9.12589       40.57997       65.32582
H         -6.39878       44.71512       65.51234
H         -7.73517       41.22197       63.40147
H         -6.36771       43.28687       63.48491
N        -12.86533       43.51219       67.37285
C        -13.47428       44.83412       67.51497
C        -13.33689       45.45861       68.89487
O        -13.64984       46.63232       69.04206
C        -14.96653       44.57385       67.26698
C        -14.93130       43.40557       66.31028
C        -13.82978       42.53626       66.91612
H        -13.01701       45.48656       66.73791
H        -15.43353       44.18100       68.20226
H        -15.54545       45.46370       66.93803
H        -15.90269       42.88706       66.16468
H        -14.57604       43.79400       65.32913
H        -14.19349       41.96017       67.79550
H        -13.43869       41.85756       66.13023
N        -12.97600       44.70714       69.97170
C        -12.89192       45.23507       71.32069
C        -11.65924       46.11027       71.42671
O        -11.78445       47.27315       71.78574
C        -12.85247       44.09885       72.37332
C        -14.21611       43.41055       72.65815
C        -14.85259       42.49119       71.64004
O        -16.05365       41.95863       71.94684
O        -14.32977       42.22339       70.57618
H        -12.76456       43.71434       69.83368
H        -13.79370       45.84429       71.55834
H        -12.58585       44.58145       73.34048
H        -12.05836       43.36646       72.14889
H        -14.95204       44.20648       72.89941
H        -14.08726       42.79108       73.57037
N        -10.42942       45.61739       71.11122
C         -9.23164       46.42529       71.19324
H         -8.35346       45.83673       70.85208
H         -9.32971       47.32191       70.54419
H         -9.06099       46.74496       72.24310
H        -10.33997       44.64266       70.78657
Ca       -17.32841       40.40208       70.86847
O        -18.36928       38.85487       73.33832
H        -18.97455       39.52327       73.74627
H        -18.55460       38.01552       73.82845
O        -19.07960       42.30246       72.41597
H        -19.49748       41.53235       71.95943
H        -19.18778       43.04689       71.77331
O        -17.12225       40.67813       67.97753
H        -16.98031       39.77382       67.60061
H        -17.84209       41.07007       67.42283

Ca 1.0



