%chk=apoCaM-CA-Ng.loop1.water3.frame75.chk
%nprocshared=20
%mem=10GB
%nosave
#b3lyp/svp scf=(tight,noincore,xqc) Test 
#IOP(5/87=12) Density=Current Pop=(MK,readradii) iop(6/33=2) iop(6/42=6)

apoCaM-CA-Ng.loop1.water3.frame75 

   0  1 
C         52.32365       47.59472       81.77027
C         51.38450       48.18460       82.78366
O         51.67963       48.15712       83.96983
H         53.23252       47.18419       82.25857
H         51.81236       46.77801       81.21830
H         52.63263       48.37882       81.04610
N         50.22408       48.76121       82.36749
C         49.27223       49.41502       83.26688
C         48.48359       48.45229       84.17098
O         47.62902       48.92978       84.90524
C         48.31837       50.32635       82.45492
C         47.32479       49.60448       81.58881
O         47.68917       48.85851       80.69446
O         46.01131       49.82842       81.77370
H         50.06415       48.80531       81.34987
H         49.84843       50.11354       83.91215
H         48.92499       51.00540       81.81663
H         47.74841       50.96492       83.16401
N         48.71795       47.10654       84.19726
C         47.96578       46.14691       85.00798
C         48.84714       45.59516       86.11597
O         49.98883       45.26984       85.81678
C         47.53031       44.96214       84.11872
C         46.56460       45.31369       82.97961
C         45.22322       45.86452       83.48951
C         44.14913       45.94211       82.39324
N         44.52796       46.82322       81.29108
H         49.47687       46.71682       83.62304
H         47.06886       46.60461       85.45233
H         47.04284       44.18913       84.74623
H         48.43520       44.49206       83.67280
H         46.36920       44.36782       82.42878
H         47.04519       46.03361       82.28393
H         45.37119       46.86775       83.94413
H         44.82702       45.17714       84.26629
H         43.21132       46.32261       82.85600
H         43.94698       44.92211       81.99884
H         45.36637       46.45297       80.78948
H         43.73592       46.87538       80.61115
H         44.71703       47.77938       81.65829
N         48.43093       45.36319       87.40281
C         47.09732       45.54485       87.98693
C         45.98182       44.84162       87.21231
O         45.03737       45.51035       86.81496
C         46.76789       47.03279       88.26854
C         47.65709       47.66503       89.30281
O         48.65926       46.97705       89.88433
O         47.44097       48.81486       89.64888
H         49.12915       44.93927       88.03436
H         47.09284       45.05996       88.99069
H         45.73667       47.08655       88.68524
H         46.79587       47.63894       87.34377
N         45.93271       43.49215       87.01476
C         46.95398       42.53727       87.39640
C         46.48522       41.71634       88.57446
O         45.42368       41.12086       88.45638
H         45.08685       43.10256       86.56854
H         47.91614       43.01786       87.54994
H         47.13130       41.86186       86.53232
N         47.18927       41.56345       89.73732
C         48.49617       42.13849       90.05803
C         48.48181       42.76447       91.44269
O         47.99639       42.14974       92.38262
C         49.61390       41.10008       89.82987
C         49.53203       39.80020       90.58502
O         50.37923       38.94604       90.37870
O         48.54600       39.54527       91.46394
H         46.78074       40.92193       90.43448
H         48.77110       42.95172       89.37288
H         50.59314       41.57875       90.04955
H         49.60033       40.84817       88.74511
N         49.00170       44.01232       91.63561
C         48.90231       44.72850       92.89642
C         47.50256       45.26644       93.09630
O         46.64725       45.06140       92.24441
H         49.48737       44.48401       90.85813
H         49.57491       45.61030       92.86771
H         49.22775       44.07820       93.73873
N         47.19779       45.99261       94.20821
C         45.86459       46.54807       94.42885
C         45.52936       47.60309       93.38235
O         46.39141       48.39409       93.02608
C         45.67584       47.09094       95.86913
C         46.44545       48.38065       96.16204
O         46.05668       46.11376       96.80485
H         47.92859       46.12469       94.92439
H         45.13640       45.70909       94.34918
H         44.59738       47.33432       96.01681
H         45.42456       45.35383       96.71001
H         46.09786       49.20059       95.49900
H         46.24490       48.69506       97.20866
H         47.53666       48.23682       96.03136
N         44.28082       47.66047       92.84618
C         43.89118       48.60386       91.79804
C         44.01828       50.04869       92.27710
O         43.33686       50.44209       93.21350
C         42.44258       48.28886       91.30661
C         42.42488       46.89210       90.62169
C         41.92132       49.37124       90.33677
C         41.02410       46.38309       90.28612
H         43.58468       46.98502       93.19552
H         44.56803       48.45856       90.92621
H         41.77131       48.27997       92.19501
H         42.87386       46.12864       91.28871
H         43.03949       46.92402       89.69466
H         40.87827       49.16650       90.02615
H         41.89444       50.36432       90.83122
H         42.56654       49.43645       89.43546
H         40.50814       47.03820       89.55796
H         41.10525       45.37313       89.83137
H         40.41789       46.30514       91.21352
N         44.86546       50.89585       91.62188
C         45.01647       52.32381       91.90669
C         44.67392       53.18718       90.68510
O         44.16260       54.28047       90.87959
C         46.44005       52.64611       92.42958
C         47.56872       52.26066       91.46285
O         46.65335       52.04827       93.68420
H         45.43892       50.49179       90.87096
H         44.31963       52.63045       92.71995
H         46.49736       53.74663       92.58396
H         46.61036       51.06463       93.56589
H         47.43857       52.77074       90.48747
H         48.54606       52.56854       91.88980
H         47.59801       51.16346       91.29951
N         44.91874       52.76109       89.40610
C         44.60972       53.49271       88.17487
C         45.53725       54.68144       87.95830
O         46.29431       55.05382       88.84428
C         43.09143       53.83914       88.06164
C         42.23651       52.57509       88.14162
O         42.79760       54.46250       86.83708
H         45.34200       51.83680       89.26195
H         44.85918       52.80614       87.33403
H         42.77818       54.50467       88.89751
H         42.79005       55.44366       86.99445
H         42.50621       51.87804       87.31856
H         42.38214       52.06441       89.11357
H         41.16270       52.84075       88.04146
N         45.56848       55.27103       86.72764
C         46.50884       56.31627       86.33490
C         47.88979       55.75003       86.01851
O         48.81559       56.53415       85.89635
C         45.93961       57.12294       85.14078
C         45.83719       56.30747       83.83209
C         44.97698       57.02704       82.78609
C         44.84888       56.24040       81.46673
N         44.28308       54.89994       81.65482
H         44.93860       54.89322       86.01421
H         46.59469       57.02359       87.19000
H         46.56153       58.02477       84.94780
H         44.92747       57.47009       85.44621
H         45.35068       55.33955       84.02737
H         46.85573       56.10688       83.43469
H         45.41307       58.02473       82.56348
H         43.95784       57.17977       83.20679
H         45.84383       56.15476       80.97845
H         44.18204       56.82057       80.79094
H         43.38671       54.94899       82.19155
H         44.09404       54.47508       80.71875
H         44.96324       54.27780       82.14751
N         48.09500       54.40288       85.89694
C         49.38762       53.75093       85.68395
C         49.91500       53.93330       84.25882
O         49.90137       52.98399       83.48598
C         49.26777       52.23809       86.04314
C         48.75147       51.93451       87.47324
C         49.56136       52.58435       88.56775
O         50.21837       51.85199       89.48893
O         49.58635       53.80013       88.66552
H         47.28312       53.78309       86.01343
H         50.14733       54.16471       86.37545
H         50.26809       51.76646       85.92503
H         48.56967       51.74340       85.33257
H         48.75565       50.83275       87.60707
H         47.69717       52.26343       87.58588
N         50.46776       55.11103       83.85536
C         51.01817       55.29149       82.52869
H         51.83714       54.56078       82.35428
H         50.22592       55.15294       81.76339
H         51.43608       56.31631       82.42891
H         50.54601       55.89823       84.50853
Ca        50.25912       49.60268       89.60493
O         50.22394       48.01513       87.22309
H         51.18230       48.01949       86.97790
H         49.85003       48.82120       86.78830
O         49.69738       49.16583       92.89509
H         48.93718       48.83470       92.35448
H         49.39404       49.07641       93.83332
O         51.46744       47.03391       91.59918
H         51.73465       46.86030       92.53691
H         52.27496       46.82264       91.06745

Ca 1.0



