%chk=apoCaM-CA-Ng.loop3.water5.frame368.chk
%nprocshared=20
%mem=10GB
%nosave
#b3lyp/svp scf=(tight,noincore,xqc) Test 
#IOP(5/87=12) Density=Current Pop=(MK,readradii) iop(6/33=2) iop(6/42=6)

apoCaM-CA-Ng.loop3.water5.frame368 

   0  1 
C         60.77616      114.39308       38.82597
C         61.31203      115.66487       38.24274
O         62.31695      115.62969       37.54746
H         59.74150      114.22427       38.45997
H         61.40787      113.52716       38.53526
H         60.76209      114.47178       39.93345
N         60.67855      116.84267       38.50159
C         61.11049      118.13924       37.99848
C         62.50149      118.46841       38.53162
O         63.42900      118.67894       37.76186
C         60.97769      118.19420       36.45560
C         61.13520      119.58047       35.87968
O         61.02283      119.74462       34.67547
O         61.36656      120.64760       36.67031
H         59.83836      116.82437       39.10087
H         60.40564      118.90272       38.40065
H         59.95683      117.84837       36.18049
H         61.71395      117.51502       35.97801
N         62.68943      118.55984       39.87920
C         63.94887      118.97949       40.49826
C         65.07251      117.93764       40.43374
O         66.16466      118.23609       40.89763
C         63.68630      119.38451       41.97027
C         63.39387      118.19655       42.90974
C         63.02925      118.69506       44.31608
C         62.97749      117.57233       45.36713
N         61.99415      116.53578       45.05177
H         61.86009      118.42428       40.47780
H         64.27824      119.90448       39.97496
H         62.83463      120.10105       41.98438
H         64.57851      119.91868       42.36429
H         64.30558      117.56412       42.97168
H         62.55953      117.57989       42.51551
H         62.05256      119.22631       44.27355
H         63.80160      119.41785       44.65812
H         62.72050      118.03055       46.34816
H         63.98469      117.10918       45.46141
H         61.04335      116.95644       44.94411
H         62.26500      116.02496       44.18146
H         61.97328      115.84521       45.83702
N         64.86953      116.68469       39.93861
C         65.86504      115.61263       39.99235
C         67.13666      115.95534       39.21777
O         67.04389      116.35997       38.06810
C         65.23517      114.32228       39.43964
C         66.14462      113.14461       39.60184
O         66.53343      112.54850       38.62012
O         66.53086      112.71370       40.81310
H         63.94020      116.45369       39.56142
H         66.11721      115.41958       41.05915
H         64.98339      114.46676       38.36426
H         64.29338      114.09517       39.98473
N         68.36728      115.79462       39.79494
C         69.62471      116.11092       39.12268
C         69.98217      115.22162       37.93566
O         70.94480      115.55381       37.25777
H         68.41947      115.47008       40.77205
H         70.46308      116.03736       39.84855
H         69.56918      117.16647       38.77905
N         69.26880      114.10624       37.60320
C         69.50438      113.32188       36.38733
C         68.34900      113.49080       35.39792
O         68.46949      113.02306       34.27518
C         69.60915      111.80835       36.70548
C         70.73015      111.39887       37.62111
N         72.02164      111.54413       37.25029
O         70.46582      110.87679       38.69393
H         68.49382      113.83092       38.21258
H         70.42621      113.67204       35.87347
H         69.73162      111.24515       35.75773
H         68.65261      111.48294       37.16711
H         72.26537      111.94745       36.33493
H         72.77927      111.22403       37.87240
N         67.16536      114.05830       35.77387
C         65.96274      114.05104       34.96195
C         65.06483      112.89009       35.35508
O         63.90266      112.88804       34.97105
H         67.02758      114.35369       36.74217
H         66.18179      114.00574       33.87508
H         65.43406      115.00919       35.16015
N         65.55195      111.84198       36.07989
C         64.77925      110.69247       36.52387
C         65.72698      109.65928       37.11804
O         66.44099      109.94466       38.07109
C         63.69910      111.09534       37.55354
C         62.96115      109.89267       38.10172
C         62.23116      109.04453       37.25112
C         63.00863      109.60494       39.47741
C         61.56534      107.92813       37.76780
C         62.34018      108.49051       39.99135
C         61.61641      107.64716       39.13708
O         60.96801      106.56787       39.61948
H         66.55468      111.82960       36.30010
H         64.27683      110.24661       35.63800
H         62.96624      111.78627       37.08860
H         64.18099      111.63898       38.38902
H         62.18072      109.24238       36.18838
H         63.56541      110.24073       40.15493
H         61.01050      107.27909       37.10217
H         62.38718      108.28337       41.05322
H         60.97502      106.34157       40.56065
N         65.76727      108.41565       36.59021
C         66.66933      107.36785       37.04421
C         68.06607      107.68231       36.53615
O         68.99171      107.74921       37.32872
C         66.11616      105.99605       36.56130
C         64.74181      105.76075       37.25801
C         67.08527      104.84113       36.87095
C         63.93457      104.60477       36.68061
H         65.11461      108.20071       35.81881
H         66.68533      107.32114       38.15840
H         65.97694      106.04369       35.45796
H         64.09412      106.65340       37.14465
H         64.89584      105.60744       38.34968
H         68.05691      104.99973       36.36269
H         67.26245      104.75843       37.96382
H         66.68516      103.87780       36.49611
H         64.45985      103.63760       36.79360
H         62.96565      104.54056       37.22160
H         63.72317      104.79779       35.60738
N         68.27376      107.93220       35.21387
C         69.58665      108.23623       34.65633
C         70.48849      107.02507       34.71747
O         71.64624      107.17634       35.08542
C         69.46054      108.73791       33.21268
O         68.67941      109.90544       33.20020
H         67.45862      107.92982       34.58288
H         70.05699      109.06910       35.22153
H         68.99184      107.97005       32.56192
H         70.48774      108.96062       32.83462
H         69.01796      110.47872       32.46438
N         70.01272      105.77825       34.41273
C         70.82206      104.56393       34.43878
C         71.47808      104.28944       35.79611
O         72.31610      103.40238       35.85430
C         71.87415      104.62893       33.31993
H         69.02096      105.67878       34.14593
H         70.17536      103.69132       34.19483
H         72.59951      105.45139       33.48121
H         72.43391      103.67061       33.26138
H         71.36869      104.78221       32.34173
N         71.14990      104.99040       36.92727
C         71.86066      104.84109       38.19457
C         70.96878      104.26392       39.27621
O         69.75432      104.36169       39.17691
C         72.39900      106.20768       38.62441
H         70.38199      105.67027       36.90060
H         72.72425      104.15353       38.07126
H         72.96427      106.12828       39.57616
H         73.07342      106.61318       37.83995
H         71.56060      106.92433       38.76411
N         71.53177      103.56878       40.31617
C         70.77661      102.89976       41.37791
C         69.87238      101.77081       40.89286
O         69.24360      101.15860       41.74638
C         70.00251      103.92476       42.25671
C         70.85147      104.44604       43.43027
C         71.12040      103.34016       44.42403
O         72.26455      103.00868       44.68855
O         70.09116      102.70404       45.01970
H         72.55906      103.48622       40.34740
H         71.49739      102.36374       42.03343
H         69.10569      103.45934       42.71905
H         69.62712      104.76604       41.63849
H         70.28489      105.23670       43.96636
H         71.80168      104.88476       43.05605
N         69.78554      101.38253       39.58736
C         68.95949      100.27350       39.15164
H         68.20849      100.63746       38.42132
H         69.60166       99.50966       38.66599
H         68.42044       99.78424       39.99075
H         70.33210      101.85559       38.85782
Ca        67.83499      110.87016       40.75524
O         70.65119      110.14267       41.74504
H         71.16209      110.67325       42.40608
H         70.59162      109.23833       42.14329
O         68.80579      108.12256       40.20388
H         69.74418      108.13839       39.88956
H         68.51021      107.18825       40.06608
O         69.93257      113.07766       40.74548
H         70.77718      113.10598       40.23011
H         70.21965      113.07907       41.69257
O         67.93643      111.74125       43.42716
H         68.83171      112.01026       43.75192
H         67.40067      111.59190       44.24521
O         66.57875      108.66159       42.28340
H         66.12347      107.78573       42.21133
H         67.35785      108.49194       42.87083

Ca 1.0



