%chk=apoCaM-CA-Ng.loop1.water6.frame587.chk
%nprocshared=20
%mem=10GB
%nosave
#b3lyp/svp scf=(tight,noincore,xqc) Test 
#IOP(5/87=12) Density=Current Pop=(MK,readradii) iop(6/33=2) iop(6/42=6)

apoCaM-CA-Ng.loop1.water6.frame587 

   0  1 
C         72.50111      105.32382      114.58602
C         71.05201      105.67958      114.46206
O         70.20888      104.81713      114.66922
H         72.98030      105.95781      115.35900
H         72.61825      104.25504      114.86784
H         73.00278      105.48745      113.60874
N         70.68324      106.94511      114.10766
C         69.28438      107.32683      113.91681
C         68.64672      106.50156      112.80915
O         69.34639      105.74171      112.15119
C         69.13052      108.84532      113.65417
C         69.75823      109.32228      112.36752
O         69.06252      109.83246      111.50401
O         71.08715      109.23035      112.17192
H         71.42737      107.64531      113.97999
H         68.74618      107.10303      114.86465
H         69.57558      109.40930      114.50166
H         68.04648      109.09213      113.63212
N         67.30698      106.57568      112.56895
C         66.64121      105.70802      111.60418
C         66.05755      106.52996      110.47808
O         65.90975      107.73451      110.63805
C         65.56274      104.90588      112.36079
C         65.04010      103.68206      111.60704
C         64.00045      102.94060      112.45373
C         63.65292      101.56382      111.88169
N         63.17161      101.64324      110.51086
H         66.73094      107.23349      113.11684
H         67.38019      105.00365      111.16521
H         64.72857      105.58398      112.65161
H         66.02595      104.51498      113.29396
H         65.90325      103.01061      111.40532
H         64.56270      103.97240      110.65230
H         63.08374      103.56838      112.52916
H         64.39129      102.76798      113.47887
H         62.86201      101.11579      112.52366
H         64.54341      100.89827      111.91376
H         62.42264      102.35520      110.44151
H         63.94563      101.87175      109.84557
H         62.76907      100.71934      110.27140
N         65.70401      105.94195      109.29863
C         65.10160      106.68637      108.20159
C         64.67231      105.70806      107.10721
O         65.55417      105.10063      106.51480
C         66.11703      107.71783      107.63063
C         65.48382      108.69191      106.68286
O         64.93692      108.30465      105.66631
O         65.53475      110.01082      106.94946
H         65.85111      104.92764      109.18917
H         64.23263      107.22482      108.62292
H         66.95602      107.18959      107.12574
H         66.56882      108.32172      108.44077
N         63.37455      105.45372      106.76015
C         62.18315      105.98453      107.40241
C         61.71830      105.10006      108.54363
O         62.39152      104.14109      108.88106
H         63.21146      104.76661      106.00942
H         61.37182      106.00535      106.64418
H         62.31480      107.03699      107.72074
N         60.55139      105.38901      109.18502
C         60.02720      104.66596      110.34825
C         59.71220      103.18380      110.10666
O         60.13809      102.37647      110.92036
C         58.83586      105.43616      110.97194
C         57.66890      105.70003      110.05562
O         56.90387      104.69229      109.60046
O         57.37749      106.84942      109.76312
H         60.03488      106.21871      108.85498
H         60.80464      104.69408      111.14677
H         59.23378      106.42180      111.30461
H         58.47447      104.90685      111.88000
N         58.95036      102.73654      109.06697
C         58.61876      101.32037      108.88250
C         59.82571      100.46556      108.52971
O         60.91184      101.00875      108.43262
H         58.57381      103.41444      108.39004
H         57.89858      101.22964      108.04158
H         58.12724      100.92975      109.80039
N         59.67202       99.12023      108.27619
C         60.70197       98.16251      107.81758
C         62.08826       98.77571      107.66464
O         62.70576       99.11772      108.65711
C         60.71131       96.87287      108.68637
C         60.95980       97.11870      110.17968
O         59.47551       96.21617      108.56036
H         58.71509       98.74356      108.35545
H         60.38482       97.83893      106.80222
H         61.52102       96.19481      108.32348
H         59.50179       95.70904      107.70647
H         61.94774       97.57966      110.36862
H         60.16512       97.76745      110.60527
H         60.93952       96.14718      110.71990
N         62.59976       99.02522      106.42534
C         63.74423       99.90953      106.19822
C         63.24585      101.21741      105.56352
O         63.94769      102.21208      105.66528
C         64.84301       99.23019      105.31371
C         65.57993       98.05036      106.00164
C         65.93206      100.23598      104.87357
C         64.71217       96.86651      106.41354
H         62.08523       98.67000      105.60673
H         64.20055      100.20644      107.16977
H         64.35597       98.85754      104.38516
H         66.13617       98.41377      106.89360
H         66.32222       97.65242      105.27403
H         66.69445       99.73679      104.23973
H         65.51244      101.04754      104.24530
H         66.43670      100.68157      105.75833
H         65.36923       96.04879      106.77745
H         64.04649       97.13006      107.25216
H         64.12098       96.49571      105.55059
N         62.05142      101.29626      104.90124
C         61.55984      102.50103      104.24270
C         61.35472      102.22794      102.75998
O         61.55403      101.11099      102.30583
C         60.23266      102.97772      104.91117
C         59.11567      101.92218      104.90870
O         60.45792      103.43213      106.21917
H         61.45191      100.47110      104.81577
H         62.29654      103.32804      104.32056
H         59.85244      103.85351      104.34742
H         60.96093      102.73325      106.70422
H         59.39325      101.03967      105.52152
H         58.19051      102.35569      105.34254
H         58.89364      101.58977      103.87254
N         60.92358      103.23573      101.95281
C         60.58708      103.06738      100.54629
C         61.43510      103.99132       99.68955
O         62.04554      103.52038       98.73839
C         59.06965      103.32311      100.36315
C         58.60156      103.01007       98.94040
O         58.73037      104.65095      100.67373
H         60.78146      104.16282      102.37357
H         60.76805      102.01818      100.22066
H         58.51279      102.62105      101.03021
H         58.51546      104.68155      101.64234
H         57.50396      103.16440       98.86661
H         59.10330      103.66979       98.20198
H         58.82124      101.94991       98.68966
N         61.52837      105.32072       99.97587
C         62.26493      106.26782       99.15540
C         62.69435      107.47059       99.97687
O         61.87584      108.10647      100.62720
C         61.41833      106.67981       97.93605
C         62.06476      107.84026       97.15792
C         61.32145      108.14347       95.85810
C         61.85289      109.44046       95.23204
N         61.23095      109.68937       93.93370
H         61.04995      105.68527      100.81210
H         63.19148      105.78662       98.76802
H         60.40856      107.00729       98.26742
H         61.30215      105.78989       97.27934
H         63.12475      107.60570       96.91470
H         62.04090      108.74559       97.80438
H         60.23469      108.26813       96.05667
H         61.46512      107.28810       95.16216
H         62.95632      109.38278       95.10177
H         61.62729      110.28845       95.91880
H         61.55923      110.61298       93.56987
H         61.51344      108.94056       93.26034
H         60.18944      109.70949       94.02539
N         63.99218      107.87039       99.90775
C         64.54566      109.01909      100.60962
C         64.63344      108.74529      102.13318
O         63.50444      109.27900      102.76202
C         65.91576      109.39772       99.99397
C         65.73106      109.87364       98.53514
C         67.04316      110.13439       97.85640
O         67.89313      111.05551       98.34684
O         67.33806      109.52047       96.84256
H         64.62475      107.34130       99.28737
H         63.90958      109.91927      100.44498
H         66.60924      108.53441      100.01720
H         66.37688      110.22593      100.57595
H         65.12658      110.80697       98.52526
H         65.18234      109.10938       97.94402
N         64.72917      107.31367      102.46954
C         66.04516      106.74466      102.19384
H         66.84719      107.33352      102.68871
H         66.07515      105.70389      102.58232
H         66.21928      106.67275      101.10444
H         64.56052      107.20600      103.49469
Ca        64.33941      110.86347      104.17634
O         64.82624      113.26305      102.55920
H         64.52003      114.18118      102.76715
H         65.73848      113.37888      102.19258
O         64.98042      113.70079      105.89857
H         64.63265      114.02701      106.76636
H         65.33899      114.51037      105.45549
O         63.34452      111.65708      107.81955
H         63.05009      110.90616      108.39385
H         62.51102      112.13937      107.59159
O         67.39721      110.96548      104.29784
H         68.07478      110.68610      103.63239
H         67.65425      110.49152      105.12822
O         61.88902      112.98716      104.98553
H         61.47176      112.49158      104.23686
H         62.32853      113.76310      104.55553
O         61.94060      109.63568      105.57272
H         61.09396      110.08904      105.33241
H         61.86500      109.46477      106.54466

Ca 1.0



