%chk=apoCaM-CA-Ng.loop2.water2.frame883.chk
%nprocshared=20
%mem=10GB
%nosave
#b3lyp/svp scf=(tight,noincore,xqc) Test 
#IOP(5/87=12) Density=Current Pop=(MK,readradii) iop(6/33=2) iop(6/42=6)

apoCaM-CA-Ng.loop2.water2.frame883 

   -2  1 
C        100.60798        1.09755       -3.42923
C         99.96087        2.45317       -3.41241
O         98.76469        2.54132       -3.65003
H        101.68771        1.15880       -3.17527
H        100.11340        0.44534       -2.67828
H        100.50467        0.64011       -4.43441
N        100.69400        3.56513       -3.12040
C        100.12382        4.90999       -3.04436
C         99.19320        5.08674       -1.83551
O         98.65893        6.17462       -1.67053
C        101.28113        5.93705       -2.96610
C        100.81317        7.36549       -3.03894
O        101.06473        8.21071       -2.02099
O        100.20616        7.76551       -4.01976
H        101.70822        3.44900       -2.96646
H         99.56316        5.10428       -3.98615
H        101.97400        5.77150       -3.81961
H        101.84915        5.77795       -2.02272
N         98.96024        4.08065       -0.94151
C         98.19147        4.24339        0.28366
C         99.05303        3.73915        1.43048
O         99.43346        2.57680        1.37908
C         96.89617        3.43318        0.19217
H         99.36537        3.14995       -1.09692
H         97.90311        5.30235        0.41905
H         97.10889        2.35475        0.03143
H         96.30452        3.55052        1.12504
H         96.28417        3.80241       -0.65882
N         99.46819        4.50064        2.48326
C         99.08457        5.88690        2.75383
C         99.98699        6.51838        3.81666
O        100.77284        5.83349        4.45667
C         97.59354        5.98328        3.18570
C         97.25208        4.95481        4.23327
O         97.31449        3.76853        3.94956
O         96.85876        5.29285        5.47263
H        100.11211        4.03332        3.13954
H         99.27137        6.49012        1.83846
H         96.91780        5.79045        2.32986
H         97.36834        7.00978        3.54705
N         99.98551        7.87215        3.97118
C        100.91074        8.58344        4.83881
C        100.19023        9.64830        5.62487
O        100.41671       10.81581        5.33931
H         99.37192        8.43749        3.36333
H        101.63746        9.09825        4.17201
H        101.49634        7.91273        5.50093
N         99.28442        9.38509        6.60556
C         98.96270        8.06655        7.14008
C        100.14159        7.56184        7.96701
O        100.60062        8.29618        8.83175
C         97.70354        8.20501        8.02852
C         97.11391        6.91138        8.52298
N         96.03116        6.94473        9.33039
O         97.58670        5.83696        8.19231
H         98.80110       10.20165        7.01515
H         98.69816        7.37638        6.30978
H         96.90558        8.70103        7.43326
H         97.93971        8.85139        8.90156
H         95.61079        7.84241        9.60946
H         95.61403        6.07611        9.68468
N        100.66383        6.31544        7.78365
C        101.81888        5.81418        8.52309
C        101.46766        4.77180        9.57143
O        102.38384        4.26792       10.20485
H        100.21847        5.68684        7.10229
H        102.33763        6.63672        9.06092
H        102.54428        5.39448        7.79323
N        100.17612        4.43811        9.85431
C         99.77330        3.51636       10.91447
C         99.00402        2.32825       10.34024
O         98.82974        2.23531        9.13382
C         98.96136        4.29614       11.99000
C         99.86896        5.25260       12.77269
O         97.91934        5.03451       11.40590
H         99.42341        4.88606        9.32527
H        100.65944        3.07483       11.42137
H         98.54513        3.60751       12.75742
H         97.22203        4.38554       11.13317
H        100.67076        4.67814       13.28705
H        100.33858        6.00467       12.10519
H         99.28049        5.78493       13.55074
N         98.55316        1.35031       11.17855
C         97.91821        0.10185       10.76228
C         96.46547        0.13671       11.20696
O         96.08404       -0.49355       12.18221
C         98.75777       -1.08725       11.33111
C         98.09906       -2.48780       11.18255
C        100.16032       -1.08518       10.68956
C         97.70688       -2.88085        9.75926
H         98.69405        1.47320       12.19226
H         97.90262       -0.00576        9.65460
H         98.89359       -0.93096       12.42504
H         97.18606       -2.54602       11.80591
H         98.79403       -3.25305       11.59228
H        100.78553       -1.89461       11.12188
H        100.09756       -1.23082        9.59055
H        100.68224       -0.12309       10.87657
H         98.59049       -2.91609        9.09229
H         97.24501       -3.89087        9.78087
H         96.95594       -2.17257        9.35415
N         95.59241        0.90531       10.50291
C         94.18656        1.06731       10.85526
C         93.38481       -0.21990       10.73742
O         92.45259       -0.37585       11.51398
C         93.51875        2.14100        9.97926
C         94.27288        3.43689       10.03219
O         94.46582        4.06872       11.20637
O         94.73208        3.90933        9.00612
H         95.96247        1.42980        9.69680
H         94.13544        1.43139       11.90684
H         92.48251        2.32193       10.33988
H         93.46964        1.78839        8.92528
N         93.62141       -1.14283        9.75301
C         92.81045       -2.35405        9.59450
C         93.25681       -3.17544        8.37913
O         94.39273       -3.63259        8.39738
C         92.92731       -3.25979       10.85203
C         92.23758       -4.59677       10.67444
C         93.00190       -5.77736       10.67246
C         90.84603       -4.68256       10.49390
C         92.38883       -7.01811       10.48611
C         90.23557       -5.92878       10.30827
C         91.00683       -7.09468       10.30309
H         94.38959       -0.96767        9.08648
H         91.75867       -2.03648        9.47946
H         92.50954       -2.76724       11.75222
H         94.01014       -3.42782       11.04376
H         94.07591       -5.73791       10.80535
H         90.23552       -3.78884       10.49359
H         92.98787       -7.91965       10.48067
H         89.16452       -5.99253       10.16608
H         90.53528       -8.05800       10.15720
N         92.41985       -3.49089        7.33045
C         92.74528       -4.46381        6.28823
C         94.00015       -4.22523        5.46915
O         94.32291       -5.08838        4.66395
C         91.52551       -4.43573        5.36121
C         90.40964       -4.15575        6.33466
C         91.03064       -3.07700        7.21684
H         92.83719       -5.44956        6.79851
H         91.59206       -3.54792        4.68935
H         91.39640       -5.34650        4.73754
H         89.43595       -3.87690        5.87869
H         90.26676       -5.07498        6.94947
H         90.99880       -2.07551        6.73394
H         90.46157       -3.08270        8.16535
N         94.75619       -3.09785        5.59332
C         95.97376       -2.88953        4.81476
C         97.08142       -3.88991        5.13909
O         98.09260       -3.86759        4.44984
C         96.47768       -1.44100        4.97271
C         96.95358       -1.07029        6.39186
C         97.27527        0.39437        6.42300
O         96.58299        1.22323        7.22889
O         98.11867        0.85186        5.66830
H         94.42874       -2.34639        6.21312
H         95.70294       -3.01520        3.74200
H         95.64380       -0.76388        4.68042
H         97.31448       -1.27001        4.25900
H         97.84935       -1.66586        6.67132
H         96.15600       -1.26779        7.13666
N         96.97957       -4.79390        6.15646
C         98.02271       -5.75607        6.43498
H         98.96864       -5.23092        6.68358
H         97.72966       -6.39255        7.29725
H         98.17912       -6.41063        5.55079
H         96.14915       -4.81573        6.76207
Ca        96.56122        3.42188        6.70955
O         93.86565        2.50956        5.66620
H         93.82141        3.49882        5.64894
H         93.99941        2.25091        4.71986
O         99.71025        3.21146        6.47690
H        100.29540        2.59673        5.96858
H         99.38542        3.85617        5.80086

Ca 1.0



