%chk=apoCaM-CA-Ng.loop2.water4.frame486.chk
%nprocshared=20
%mem=10GB
%nosave
#b3lyp/svp scf=(tight,noincore,xqc) Test 
#IOP(5/87=12) Density=Current Pop=(MK,readradii) iop(6/33=2) iop(6/42=6)

apoCaM-CA-Ng.loop2.water4.frame486 

   -2  1 
C         72.06303       63.80240       73.03136
C         72.89759       64.01092       71.79963
O         72.84537       63.17752       70.90704
H         70.99117       63.74189       72.74806
H         72.36071       62.85719       73.53145
H         72.18756       64.63665       73.75274
N         73.70064       65.10645       71.68723
C         74.52876       65.39539       70.51919
C         75.99563       65.35943       70.93018
O         76.29589       65.61693       72.08729
C         74.10928       66.78438       69.97759
C         74.69438       67.20747       68.65323
O         74.37616       68.41816       68.15773
O         75.41387       66.47175       68.00085
H         73.72610       65.77773       72.47052
H         74.35671       64.62912       69.73162
H         74.36362       67.55222       70.74054
H         73.00599       66.78918       69.84110
N         76.97241       65.02621       70.03944
C         78.38110       64.96214       70.41194
C         78.59978       63.84442       71.41061
O         78.29689       62.70129       71.09324
C         79.25371       64.72798       69.17457
H         76.70966       64.80889       69.06844
H         78.68614       65.94165       70.84381
H         79.11001       65.56014       68.45230
H         80.32591       64.69839       69.46468
H         78.98686       63.77227       68.67490
N         79.10585       64.10338       72.65088
C         79.28668       63.04928       73.64691
C         80.35972       62.06652       73.21164
O         81.07191       62.32342       72.24970
C         79.71494       63.61516       75.02603
C         78.74083       64.58936       75.62404
O         78.54540       65.67020       75.09627
O         78.12628       64.29981       76.78677
H         79.33881       65.07729       72.88988
H         78.31657       62.51643       73.76640
H         80.70721       64.11076       74.94419
H         79.81647       62.77021       75.74095
N         80.54971       60.92330       73.92541
C         81.65704       60.01506       73.70454
C         81.19275       58.65937       73.25604
O         81.68263       58.19075       72.23746
H         79.90414       60.70741       74.69974
H         82.20834       59.90846       74.66297
H         82.37673       60.41511       72.95645
N         80.27371       57.95109       73.97428
C         79.91559       56.57781       73.63979
C         78.47081       56.45028       73.20944
O         77.68526       57.37585       73.36063
C         80.16676       55.68042       74.86631
C         81.59643       55.77360       75.33504
N         81.89031       56.28485       76.55432
O         82.49800       55.39306       74.60363
H         79.84239       58.37955       74.80734
H         80.53474       56.21802       72.78851
H         79.92903       54.61920       74.63793
H         79.48489       56.01065       75.68215
H         81.14549       56.62403       77.18110
H         82.86856       56.35547       76.87048
N         78.07461       55.29317       72.61508
C         76.71947       55.01284       72.18529
C         75.87449       54.51125       73.33109
O         76.30499       54.54881       74.47633
H         78.78505       54.56795       72.42799
H         76.78198       54.15574       71.47832
H         76.26853       55.86243       71.62867
N         74.69337       53.89249       73.05782
C         73.96469       53.13134       74.06776
C         73.27872       53.99946       75.11033
O         73.14826       53.53776       76.23579
C         73.01383       52.07274       73.44517
C         71.87502       52.64806       72.59151
O         73.75060       51.12997       72.70203
H         74.40454       53.83325       72.07044
H         74.71693       52.51778       74.61581
H         72.54264       51.51515       74.28409
H         74.10367       51.57641       71.88914
H         71.23706       51.81470       72.22627
H         71.24555       53.33439       73.18760
H         72.26211       53.19472       71.70799
N         72.77013       55.23079       74.81287
C         72.10698       56.08000       75.80500
C         72.77737       57.44304       75.86106
O         72.94125       58.08898       74.83587
C         70.57190       56.16000       75.58248
C         70.17856       56.67723       74.17788
C         69.95133       54.78088       75.89113
C         68.66704       56.83615       74.00053
H         72.84303       55.57670       73.84409
H         72.21141       55.63668       76.81950
H         70.16861       56.86607       76.34402
H         70.55779       55.98963       73.39250
H         70.62855       57.67805       74.01893
H         70.29506       54.01548       75.16895
H         70.23985       54.45042       76.91290
H         68.84516       54.81842       75.88278
H         68.14699       55.85893       74.06242
H         68.25836       57.52160       74.77332
H         68.45510       57.26050       72.99766
N         73.22601       57.91318       77.05866
C         73.98938       59.14782       77.23829
C         74.51311       59.16497       78.67617
O         74.31310       60.12104       79.40716
C         73.09664       60.37218       76.90434
C         73.79720       61.69821       76.93834
O         73.08585       62.81254       76.68441
O         74.99294       61.78233       77.17118
H         73.04813       57.32432       77.88726
H         74.86928       59.10940       76.55885
H         72.24656       60.39957       77.61727
H         72.67505       60.27507       75.88511
N         75.10532       58.03400       79.15729
C         75.43208       57.76341       80.55762
C         74.30923       58.22410       81.49585
O         73.16221       57.89417       81.22181
C         75.60114       56.22670       80.69202
C         75.85591       55.72747       82.09011
C         77.16499       55.61229       82.58098
C         74.77800       55.32424       82.89913
C         77.39090       55.10298       83.86417
C         75.00741       54.82243       84.18181
C         76.31335       54.70952       84.66378
H         75.20821       57.25146       78.49151
H         76.38691       58.26585       80.80178
H         76.40855       55.86144       80.01937
H         74.67020       55.73852       80.32223
H         78.00740       55.90391       81.96656
H         73.75997       55.39620       82.53572
H         78.40196       55.00691       84.23683
H         74.17245       54.51482       84.79832
H         76.48965       54.31243       85.65478
N         74.54489       58.94248       82.64559
C         73.49525       59.26667       83.60985
C         72.50400       60.32699       83.15480
O         71.49815       60.51699       83.82325
C         74.26450       59.78864       84.83134
C         75.59043       59.06267       84.70542
C         75.85316       59.20066       83.21270
H         72.98016       58.31020       83.85462
H         74.49561       60.87118       84.68998
H         73.73320       59.66796       85.79911
H         76.40160       59.46172       85.35055
H         75.43081       57.98525       84.93927
H         76.14137       60.25004       82.97486
H         76.65250       58.49756       82.90930
N         72.77359       61.12124       82.08201
C         71.90629       62.20655       81.63257
C         70.57668       61.65630       81.16318
O         69.55349       62.06916       81.69235
C         72.61639       63.03008       80.52619
C         73.80656       63.80276       81.13886
C         74.68605       64.56046       80.14538
O         73.95274       65.42807       79.32867
O         75.39985       63.68857       79.31754
H         73.66265       60.97792       81.58872
H         71.70983       62.90504       82.47856
H         71.91209       63.77396       80.09273
H         72.94961       62.35449       79.71102
H         74.48000       63.11659       81.69262
H         73.40342       64.53742       81.86905
N         70.51579       60.70320       80.19342
C         69.27128       60.12931       79.71948
H         68.38116       60.57454       80.21358
H         69.18108       60.29577       78.62632
H         69.26889       59.03774       79.92107
H         71.39164       60.34987       79.78344
Ca        74.95349       64.78613       77.38733
O         72.80852       66.25507       76.06223
H         73.15779       66.88430       75.38325
H         71.84638       66.16884       75.84871
O         75.95636       67.52380       77.74261
H         75.36444       67.87715       78.45293
H         76.39071       68.32388       77.35443
O         75.92750       66.54712       74.95444
H         76.50666       67.25402       74.57353
H         75.21942       66.41639       74.27793
O         75.36734       63.18629       74.52577
H         75.99062       63.57398       73.86284
H         74.98641       62.39120       74.07500

Ca 1.0



