%chk=apoCaM-CA-Ng.loop3.water3.frame615.chk
%nprocshared=20
%mem=10GB
%nosave
#b3lyp/svp scf=(tight,noincore,xqc) Test 
#IOP(5/87=12) Density=Current Pop=(MK,readradii) iop(6/33=2) iop(6/42=6)

apoCaM-CA-Ng.loop3.water3.frame615 

   0  1 
C         93.86615      120.14167       81.02008
C         94.94283      120.85714       80.25671
O         94.85992      122.06908       80.11741
H         92.88931      120.28179       80.51250
H         94.07461      119.05337       81.09398
H         93.80557      120.55640       82.04836
N         95.99825      120.16801       79.73827
C         97.09635      120.81375       79.02795
C         96.57872      121.52102       77.78812
O         95.96595      120.88288       76.94314
C         98.19027      119.77651       78.69197
C         99.48321      120.38246       78.20271
O        100.47202      119.67428       78.10063
O         99.59083      121.70295       77.95177
H         96.03320      119.14660       79.88245
H         97.55930      121.54757       79.72277
H         97.81446      119.01507       77.97709
H         98.44044      119.25643       79.64181
N         96.78575      122.85959       77.63360
C         96.27621      123.64054       76.51071
C         96.75329      123.08065       75.18275
O         95.92015      122.81623       74.32746
C         96.68774      125.12296       76.67371
C         96.07852      126.02217       75.58580
C         96.39505      127.50293       75.83480
C         95.73271      128.38568       74.76659
N         95.99814      129.80291       75.01163
H         97.32470      123.35172       78.36387
H         95.16324      123.60509       76.53391
H         97.79489      125.22035       76.66519
H         96.31457      125.47376       77.66191
H         94.97444      125.89003       75.59012
H         96.47154      125.72548       74.58896
H         97.49593      127.66048       75.82144
H         96.00479      127.79580       76.83451
H         94.63281      128.21604       74.78099
H         96.11695      128.10799       73.75978
H         95.50143      130.37263       74.28879
H         95.64466      130.07819       75.95687
H         97.02429      129.99365       74.94773
N         98.07583      122.84621       74.95664
C         98.59174      122.32223       73.69227
C         99.04733      120.87235       73.79364
O         99.48869      120.33702       72.78568
C         99.70410      123.24415       73.13967
C        100.94199      123.38020       73.99463
O        101.05412      122.76655       75.18657
O        101.86524      124.07141       73.59681
H         98.73130      123.02076       75.73017
H         97.78455      122.31389       72.92742
H         99.27831      124.25915       72.98818
H        100.01795      122.85616       72.14590
N         98.92226      120.14554       74.94114
C         99.28301      118.73900       75.02771
C        100.76953      118.45950       74.91283
O        101.11784      117.28841       74.91426
H         98.49155      120.57487       75.76787
H         98.73988      118.18415       74.23103
H         98.94864      118.33004       76.00352
N        101.70296      119.45405       74.81155
C        103.12889      119.19495       74.63933
C        103.95627      119.82277       75.75296
O        103.43865      120.57857       76.56209
C        103.58455      119.77594       73.28431
C        102.79214      119.21325       72.13042
N        102.05524      120.02768       71.33778
O        102.81722      118.01220       71.90778
H        101.40482      120.43232       74.82420
H        103.32527      118.10080       74.64912
H        104.65921      119.55531       73.11113
H        103.46427      120.88214       73.31278
H        102.01836      121.04355       71.50874
H        101.51215      119.64225       70.55112
N        105.28601      119.52988       75.82893
C        106.22568      120.12094       76.76815
C        105.84289      119.93515       78.22063
O        105.49470      118.83639       78.62758
H        105.67339      118.85064       75.15697
H        106.34502      121.20260       76.53854
H        107.21544      119.64180       76.60853
N        105.96417      120.98888       79.07642
C        105.63018      120.95089       80.49980
C        104.12270      121.03287       80.69110
O        103.39230      121.04550       79.71253
C        106.34748      122.12791       81.21556
C        107.83238      121.87236       81.31992
C        108.73130      122.36109       80.35859
C        108.32730      121.12707       82.40532
C        110.10202      122.10187       80.48055
C        109.69557      120.87714       82.52963
C        110.58876      121.36231       81.56521
O        111.91199      121.12495       81.67110
H        106.34227      121.86980       78.69455
H        105.99331      120.00879       80.96817
H        105.98717      122.27004       82.25407
H        106.13737      123.09350       80.70812
H        108.37415      122.93525       79.51379
H        107.65154      120.74365       83.16048
H        110.78769      122.47684       79.73146
H        110.05882      120.30616       83.37534
H        112.28645      120.61991       82.40747
N        103.59249      121.12199       81.94689
C        102.17414      121.28085       82.24970
C        101.63388      122.56146       81.53890
O        100.88814      122.16521       80.42835
C        101.37920      119.95858       81.94838
C         99.84609      120.04018       82.21772
C        101.98934      118.77414       82.71952
C         99.44173      120.37276       83.65329
H        104.23155      121.11347       82.75493
H        102.11448      121.44593       83.34891
H        101.48981      119.72148       80.86764
H         99.38722      119.06516       81.94412
H         99.37287      120.79306       81.56043
H        101.45179      117.83500       82.46775
H        103.05520      118.63224       82.44424
H        101.93466      118.93776       83.81545
H         98.33268      120.40508       83.71333
H         99.80230      119.60095       84.36090
H         99.82728      121.36557       83.95690
N        100.76769      123.33219       82.44432
C        100.06399      124.46595       81.80537
C        100.63239      125.82164       82.19912
O        101.01513      126.57296       81.31234
C         98.57807      124.40091       82.17760
O         98.03508      123.19026       81.72679
H        101.29235      123.62588       83.30034
H        100.10493      124.39154       80.69432
H         98.05600      125.25632       81.68758
H         98.44645      124.47148       83.27901
H         97.05462      123.32604       81.65767
N        100.65564      126.22982       83.50367
C        101.02390      127.58988       83.89652
C        102.45611      127.94192       83.52139
O        103.24828      127.03167       83.32001
C        100.83971      127.77219       85.40801
H        100.32771      125.57526       84.23028
H        100.32527      128.26276       83.35637
H        101.08267      128.80568       85.72241
H         99.78794      127.55773       85.69143
H        101.50813      127.07637       85.96015
N        102.88233      129.23179       83.34479
C        102.02598      130.41781       83.38290
C        102.76384      131.62509       83.96097
O        103.91188      131.82767       83.59009
C        101.60959      130.75158       81.94800
H        103.84812      129.35712       83.00120
H        101.08958      130.22846       83.93305
H        101.05192      129.89656       81.50897
H        100.94089      131.63934       81.93906
H        102.49641      130.96103       81.31295
N        102.17044      132.56029       84.76700
C        100.77029      132.52591       85.17873
C        100.53718      131.57268       86.33483
O         99.40974      131.13216       86.50967
C        100.23225      133.93662       85.52123
C        100.83276      134.56908       86.79454
C        100.29102      135.94895       87.06984
O         99.48155      136.47636       86.32180
O        100.70872      136.61459       88.16296
H        102.72928      133.39556       84.99900
H        100.16478      132.21337       84.30028
H         99.13006      133.86758       85.66020
H        100.42533      134.60147       84.64998
H        101.93501      134.64732       86.70610
H        100.59185      133.93036       87.67070
N        101.53798      131.28272       87.21696
C        101.35772      130.44545       88.38526
H        100.32629      130.04351       88.46551
H        102.06750      129.59413       88.34110
H        101.57010      131.04311       89.29752
H        102.47201      131.69743       87.08428
Ca       101.57851      122.67883       78.34008
O        100.34725      125.11958       77.64778
H         99.94278      125.80960       78.23042
H        100.65092      125.60987       76.84340
O        104.10974      124.01145       79.21387
H        103.78210      124.04321       80.14753
H        104.34066      124.94917       78.99889
O        103.93226      123.91267       76.15455
H        104.46237      124.74804       76.18660
H        102.99699      124.21381       76.27279

Ca 1.0



