%chk=apoCaM-CA-Ng.loop3.water6.frame1135.chk
%nprocshared=20
%mem=10GB
%nosave
#b3lyp/svp scf=(tight,noincore,xqc) Test 
#IOP(5/87=12) Density=Current Pop=(MK,readradii) iop(6/33=2) iop(6/42=6)

apoCaM-CA-Ng.loop3.water6.frame1135 

   0  1 
C         71.25439       71.17877       65.01046
C         70.01979       71.37646       65.83831
O         68.93549       71.03678       65.38757
H         71.96489       70.52200       65.55557
H         71.00740       70.70710       64.03535
H         71.73777       72.16070       64.82369
N         70.12303       71.92270       67.08086
C         68.98480       72.14332       67.96639
C         68.80404       73.61286       68.31651
O         67.93408       73.90081       69.12671
C         69.11825       71.26325       69.22995
C         70.28633       71.56361       70.13615
O         71.07171       72.46587       69.89531
O         70.45698       70.82207       71.24656
H         71.06258       72.18333       67.41663
H         68.03979       71.82115       67.47463
H         69.19126       70.20341       68.90470
H         68.18902       71.36503       69.83260
N         69.53951       74.60357       67.71940
C         69.34600       76.02744       67.98390
C         67.90094       76.39022       67.70267
O         67.22098       76.92011       68.57217
C         69.78367       76.38360       69.42348
C         71.27404       76.09330       69.64998
C         71.63891       76.25056       71.12909
C         73.12228       75.94489       71.36914
N         73.42928       75.95655       72.79882
H         70.23727       74.36203       67.00177
H         69.98167       76.61251       67.28165
H         69.17744       75.79639       70.14456
H         69.60222       77.46334       69.62364
H         71.88453       76.77617       69.01814
H         71.49956       75.04682       69.35635
H         71.02544       75.53132       71.71535
H         71.41072       77.28200       71.47696
H         73.74595       76.70205       70.84336
H         73.36979       74.94016       70.95931
H         73.19182       76.88564       73.21551
H         72.88582       75.20434       73.28269
H         74.44925       75.77054       72.93251
N         67.35805       76.07354       66.49300
C         65.95882       76.30482       66.16321
C         65.25080       74.98155       65.91840
O         64.60793       74.80958       64.89070
C         65.85078       77.30481       64.99015
C         66.46598       76.85792       63.68334
O         66.44287       77.61649       62.72866
O         67.02770       75.64122       63.53871
H         67.96135       75.61682       65.79407
H         65.43643       76.77265       67.02621
H         66.35605       78.24150       65.30542
H         64.77900       77.53704       64.80877
N         65.31504       73.99289       66.85466
C         64.59237       72.74232       66.69763
C         64.80661       71.81195       67.88456
O         64.60242       72.27822       68.99648
H         65.87490       74.15037       67.70394
H         64.85761       72.29878       65.72671
H         63.50789       72.98228       66.66153
N         65.12679       70.48104       67.79468
C         65.31368       69.70164       66.56839
C         66.58138       68.85351       66.66076
O         67.07208       68.65239       67.76297
C         64.07769       68.79496       66.39000
C         62.81358       69.61935       66.31033
N         61.85081       69.50397       67.25569
O         62.66451       70.40890       65.38952
H         65.14802       69.95320       68.68268
H         65.40760       70.35081       65.68900
H         64.01769       68.09920       67.25579
H         64.14968       68.17974       65.47268
H         61.95855       68.85137       68.04580
H         60.99644       70.07869       67.20532
N         67.20493       68.31387       65.57147
C         66.80815       68.54839       64.19108
C         67.77385       67.87117       63.24682
O         67.87014       66.65088       63.28302
H         68.05029       67.74522       65.74624
H         66.81394       69.64184       63.99969
H         65.79111       68.15683       63.99648
N         68.56079       68.60497       62.40556
C         69.56971       67.99424       61.54010
C         70.51579       69.03613       60.94413
O         70.18595       70.21493       60.88699
C         68.89456       67.16673       60.41300
C         69.87574       66.38563       59.57029
C         70.02003       66.65929       58.19920
C         70.65224       65.36811       60.15057
C         70.93416       65.93551       57.42652
C         71.56493       64.64601       59.37661
C         71.71051       64.92916       58.01104
O         72.59294       64.24579       57.25470
H         68.48027       69.63233       62.44935
H         70.18972       67.34296       62.19599
H         68.30917       67.86918       59.77875
H         68.17696       66.43504       60.83626
H         69.43109       67.43595       57.72751
H         70.55244       65.13628       61.20329
H         71.04159       66.15954       56.37257
H         72.15941       63.86898       59.84007
H         73.15510       63.54937       57.62333
N         71.75698       68.65555       60.52935
C         72.75377       69.58358       59.99234
C         72.28151       70.18701       58.67601
O         71.40684       69.61000       58.04423
C         74.13499       68.86257       59.87565
C         74.11535       67.72007       58.82134
C         75.28233       69.85078       59.60729
C         75.31088       66.77336       58.93902
H         72.01818       67.66999       60.67176
H         72.85310       70.39928       60.74330
H         74.32175       68.41655       60.87876
H         74.06160       68.14335       57.79480
H         73.22115       67.08629       58.96205
H         76.26537       69.34336       59.67619
H         75.19681       70.30239       58.59789
H         75.27750       70.65640       60.37169
H         75.21133       65.95853       58.19091
H         76.27108       67.29347       58.75637
H         75.32745       66.31350       59.95119
N         72.77028       71.38583       58.23654
C         72.30092       72.02049       57.00751
C         71.48366       73.25940       57.31706
O         71.45662       73.70879       58.45336
C         73.48388       72.35493       56.08189
O         74.34373       73.27177       56.70560
H         73.45681       71.89041       58.81746
H         71.62394       71.32918       56.46109
H         73.09346       72.79095       55.13352
H         74.04318       71.42366       55.84426
H         74.95659       73.60730       56.00022
N         70.74458       73.82813       56.32154
C         69.89281       75.00377       56.45436
C         70.71504       76.24501       56.72711
O         70.36907       77.01756       57.60983
C         68.78029       74.77663       57.49694
H         70.77002       73.38619       55.38996
H         69.40522       75.16639       55.46848
H         68.19499       73.86932       57.24054
H         69.19842       74.64644       58.51750
H         68.09074       75.64643       57.52548
N         71.85043       76.48474       56.00213
C         72.71710       77.65042       56.16811
C         73.31568       77.78761       57.56749
O         74.01814       78.76294       57.79775
C         71.95794       78.92482       55.77271
H         72.12583       75.79869       55.28283
H         73.56809       77.55356       55.45742
H         71.10601       79.12396       56.45376
H         72.63885       79.80238       55.79915
H         71.57257       78.82272       54.73579
N         73.08348       76.87528       58.55684
C         73.56359       77.04059       59.91816
C         75.07498       76.97451       59.92396
O         75.71976       77.90204       60.39268
C         72.94172       75.95109       60.83075
C         73.04318       76.28207       62.32949
C         72.20344       77.48981       62.65873
O         70.88197       77.47115       62.38721
O         72.71129       78.48803       63.14369
H         72.52662       76.03900       58.36109
H         73.20602       78.02808       60.28399
H         73.40461       74.96449       60.61426
H         71.85615       75.85510       60.60188
H         74.10418       76.43524       62.62171
H         72.63838       75.42740       62.91279
N         75.70499       75.90887       59.35441
C         77.14364       75.81190       59.26235
H         77.58938       75.78048       60.27760
H         77.42224       74.88448       58.71669
H         77.54586       76.68199       58.70036
H         75.14223       75.15164       58.93668
Ca        69.54944       79.27442       62.66424
O         70.64669       82.09138       62.16558
H         71.35516       82.09265       61.47423
H         69.83659       82.40460       61.69064
O         69.74929       78.99794       65.55406
H         70.72534       79.15644       65.49873
H         69.41612       79.70138       66.16550
O         70.86970       79.50701       59.96570
H         71.44821       80.27764       59.74173
H         70.67554       79.08490       59.09330
O         68.20499       77.47190       60.28513
H         68.95224       76.94549       59.90622
H         67.41508       76.88211       60.19305
O         67.43582       80.77969       60.65097
H         67.34247       80.58111       59.68566
H         67.59074       81.75686       60.68978
O         67.11879       80.75320       63.73579
H         66.65390       80.46474       64.55991
H         66.73705       81.64428       63.53618

Ca 1.0



