%chk=apoCaM-CA-Ng.loop4.water4.frame70.chk
%nprocshared=20
%mem=10GB
%nosave
#b3lyp/svp scf=(tight,noincore,xqc) Test 
#IOP(5/87=12) Density=Current Pop=(MK,readradii) iop(6/33=2) iop(6/42=6)

apoCaM-CA-Ng.loop4.water4.frame70 

   -3  1 
C         47.19903       65.86285       62.14960
C         47.12709       66.96903       61.14271
O         47.81445       67.96222       61.31379
H         47.90411       66.12445       62.96889
H         46.19395       65.68771       62.58525
H         47.55750       64.93590       61.65593
N         46.32559       66.84905       60.04465
C         46.20901       67.85786       58.99671
C         47.55766       68.10560       58.34522
O         48.18047       69.11871       58.60321
C         45.38781       69.10406       59.43221
C         45.88956       69.91287       60.59452
O         46.93427       70.53275       60.51833
O         45.14613       70.00808       61.71367
H         45.79112       65.97522       59.92508
H         45.56896       67.43934       58.18701
H         44.37360       68.73693       59.70319
H         45.26984       69.78311       58.55918
N         48.05700       67.15443       57.49840
C         49.32585       67.16274       56.76303
C         49.35064       68.22039       55.65701
O         49.35126       67.82867       54.49752
C         50.56737       67.17303       57.69647
C         51.90044       66.99651       56.91075
C         50.43726       66.08824       58.78342
C         52.04288       65.68459       56.12700
H         47.47543       66.31315       57.35875
H         49.35087       66.18239       56.23909
H         50.61679       68.15064       58.21718
H         52.74652       67.03524       57.62675
H         52.02254       67.84133       56.20018
H         49.55498       66.28111       59.42787
H         50.32408       65.07823       58.33935
H         51.32850       66.08654       59.43750
H         51.27150       65.59076       55.33795
H         53.02969       65.66748       55.62055
H         51.99364       64.80566       56.80204
N         49.33440       69.56145       55.91048
C         49.20219       70.55465       54.85296
C         50.49740       70.71864       54.05731
O         50.43588       70.50460       52.85476
C         48.62122       71.88940       55.39106
C         47.23652       71.74574       55.98280
O         46.60324       72.83889       56.44846
O         46.67631       70.66164       56.04407
H         49.34120       69.90179       56.87409
H         48.41574       70.20553       54.14271
H         48.54489       72.60747       54.54641
H         49.25281       72.33797       56.17221
N         51.70783       71.08581       54.58362
C         51.95792       71.34003       55.99666
C         53.38331       71.79416       56.29986
O         54.17907       71.89158       55.37659
H         52.48802       71.17499       53.91530
H         51.74540       70.41126       56.55928
H         51.30654       72.15242       56.30537
N         53.83010       72.09722       57.56261
C         53.08001       72.03987       58.82135
C         52.54717       70.63971       59.04981
O         51.33939       70.46425       59.11755
C         51.99580       73.13568       58.91521
C         52.58614       74.50212       58.71949
O         52.19266       75.21609       57.81127
O         53.55078       74.94748       59.54731
H         54.82125       72.37376       57.64815
H         53.77465       72.26756       59.66018
H         51.52870       73.09879       59.92174
H         51.18492       72.97842       58.19071
N         53.37164       69.55867       59.13539
C         54.82357       69.61442       59.15868
C         55.41624       69.08738       57.88517
O         54.69056       68.75114       56.95855
H         52.94128       68.62699       59.20150
H         55.18259       69.02204       60.02796
H         55.21108       70.64057       59.29020
N         56.76734       68.98686       57.77816
C         57.43293       68.49010       56.58614
C         57.76376       67.01029       56.73089
O         58.33395       66.45212       55.80704
C         58.68197       69.35090       56.28401
C         58.31693       70.83872       56.11052
C         59.51469       71.68163       55.75311
N         60.17158       71.49274       54.58471
O         59.88237       72.56207       56.51694
H         57.34635       69.21193       58.60430
H         56.75630       68.56476       55.70564
H         59.15572       68.97543       55.35156
H         59.41812       69.25176       57.11336
H         57.88274       71.21689       57.06229
H         57.55448       70.95562       55.31105
H         59.86530       70.77054       53.91710
H         60.98061       72.08241       54.33821
N         57.38728       66.30136       57.84255
C         57.62277       64.86896       58.01142
C         58.55951       64.59166       59.17567
O         58.92649       63.43492       59.35208
C         56.27929       64.10669       58.19148
C         55.37422       64.30118       56.96910
C         55.52417       64.51353       59.47268
H         56.89781       66.78041       58.60649
H         58.12736       64.46278       57.10740
H         56.50969       63.02037       58.26820
H         54.44299       63.70667       57.08386
H         55.10031       65.37115       56.85145
H         55.89250       63.96023       56.04796
H         56.15491       64.34442       60.37080
H         55.21497       65.57894       59.44878
H         54.60743       63.89731       59.58456
N         59.01425       65.58670       59.99028
C         59.99883       65.38146       61.03640
C         59.49083       65.77804       62.42100
O         59.58852       64.93621       63.30278
C         61.34740       66.03184       60.63257
C         61.37919       67.49133       60.22917
N         62.54270       68.02766       59.79529
O         60.38089       68.19009       60.25899
H         58.69771       66.55126       59.83752
H         60.25726       64.29934       61.11595
H         61.70821       65.47224       59.74098
H         62.08265       65.86571       61.44982
H         63.39989       67.45768       59.74850
H         62.58613       69.01441       59.50038
N         58.97736       67.01528       62.71848
C         58.70335       67.42868       64.10102
C         57.26380       67.84313       64.33324
O         56.60451       68.22512       63.38008
C         59.57358       68.65533       64.44679
C         61.00667       68.50847       64.00469
C         61.81949       67.47451       64.49220
C         61.53418       69.41780       63.07105
C         63.13862       67.34883       64.04274
C         62.85035       69.29463       62.63037
C         63.65718       68.25565       63.11026
O         64.92651       68.11851       62.67881
H         58.84189       67.70741       61.97283
H         58.94932       66.60230       64.80144
H         59.52488       68.86031       65.53779
H         59.14202       69.53979       63.92389
H         61.42976       66.76296       65.20880
H         60.92513       70.22177       62.67485
H         63.75696       66.54337       64.41624
H         63.23596       70.00220       61.90703
H         65.31301       68.72103       62.02687
N         56.79883       67.95314       65.62200
C         55.53236       68.55162       66.06028
C         54.27148       67.73366       65.79718
O         53.45618       67.64188       66.70618
C         55.37016       70.00915       65.57996
C         56.50529       70.90116       66.11034
C         56.29062       72.33753       65.73273
O         55.18973       72.98976       66.15441
O         57.12192       72.92809       65.06231
H         57.44319       67.67329       66.37710
H         55.57605       68.62792       67.17255
H         54.40938       70.40078       65.98396
H         55.31768       70.06378       64.47255
H         57.47963       70.54857       65.71007
H         56.54040       70.84082       67.22031
N         53.99498       67.16404       64.59314
C         52.71979       66.52578       64.28284
C         52.46303       65.27265       65.11690
O         51.36606       64.73899       65.02274
C         52.63995       66.15026       62.77907
C         52.96976       67.29834       61.80461
C         52.06076       68.48195       61.93027
O         52.52043       69.57071       62.23512
O         50.75485       68.37533       61.63189
H         54.69004       67.21886       63.85923
H         51.91804       67.26865       64.49513
H         51.62112       65.76525       62.55067
H         53.36872       65.33501       62.57642
H         52.91239       66.91269       60.77081
H         54.01531       67.63806       61.92973
N         53.41706       64.73181       65.93358
C         53.20629       63.54188       66.73284
H         52.18696       63.12028       66.61149
H         53.94449       62.76766       66.43593
H         53.35894       63.78894       67.80445
H         54.35119       65.15727       65.99853
Ca        49.57755       70.29381       61.48200
O         48.00822       73.12063       61.99364
H         48.37914       74.02795       61.85415
H         48.26899       72.88507       62.91911
O         51.20083       72.46865       62.88094
H         51.43118       73.42692       62.79238
H         51.60422       72.04589       62.08242
O         48.72571       72.58954       59.05171
H         48.76845       73.47410       58.60924
H         47.84981       72.22091       58.77880
O         48.09982       70.20889       63.94646
H         47.72373       69.30855       63.77896
H         48.43863       70.17106       64.87543

Ca 1.0



