%chk=apoCaM-CA-Ng.loop2.water4.frame1223.chk
%nprocshared=20
%mem=10GB
%nosave
#b3lyp/svp scf=(tight,noincore,xqc) Test 
#IOP(5/87=12) Density=Current Pop=(MK,readradii) iop(6/33=2) iop(6/42=6)

apoCaM-CA-Ng.loop2.water4.frame1223 

   -2  1 
C         26.59823      -14.29334       13.12701
C         26.81541      -14.45632       11.64592
O         25.92144      -14.06564       10.90936
H         25.69448      -14.86271       13.42625
H         27.43735      -14.61131       13.76563
H         26.42575      -13.21657       13.33914
N         27.94585      -14.96894       11.07756
C         29.12388      -15.49003       11.77123
C         29.56856      -16.80929       11.12818
O         28.88547      -17.30792       10.24360
C         30.21876      -14.39437       11.82681
C         30.67090      -13.94453       10.47574
O         31.94881      -14.09692       10.10524
O         29.87843      -13.45833        9.68539
H         27.98615      -14.95083       10.04579
H         28.90215      -15.73620       12.82450
H         31.09398      -14.76526       12.40081
H         29.82046      -13.51347       12.37482
N         30.70158      -17.44409       11.54586
C         31.14065      -18.75742       11.07960
C         31.31245      -18.84692        9.56278
O         30.73745      -19.73409        8.94699
C         30.20304      -19.84685       11.62463
H         31.28580      -16.99288       12.26438
H         32.13814      -18.95885       11.53135
H         30.58654      -20.85380       11.35065
H         30.16205      -19.78763       12.73331
H         29.17518      -19.73395       11.22223
N         32.15838      -17.99999        8.90981
C         32.51391      -18.14810        7.48700
C         33.66259      -17.21687        7.10270
O         34.05215      -16.37432        7.90026
C         31.29265      -17.95988        6.53774
C         30.73189      -16.56868        6.59375
O         29.61610      -16.37094        7.04881
O         31.48727      -15.52708        6.19745
H         32.62385      -17.28418        9.48681
H         32.89851      -19.18346        7.35704
H         30.49729      -18.68529        6.80210
H         31.58158      -18.17625        5.48770
N         34.29340      -17.34274        5.89862
C         35.41385      -16.48966        5.52782
C         34.95698      -15.09166        5.17974
O         34.22024      -14.49022        5.94567
H         34.02051      -18.10693        5.26216
H         35.94131      -16.92566        4.65264
H         36.13819      -16.45512        6.36886
N         35.36732      -14.50100        4.02255
C         34.91548      -13.17636        3.62274
C         34.91666      -13.09266        2.11164
O         35.97479      -13.18221        1.50289
C         35.77242      -12.09588        4.31696
C         35.26535      -10.68927        4.11077
N         36.10563       -9.70307        3.72715
O         34.09605      -10.42345        4.34510
H         36.02375      -15.00916        3.40935
H         33.86579      -13.04805        3.97023
H         36.83691      -12.18093        4.00519
H         35.73192      -12.28571        5.40852
H         37.10192       -9.89052        3.54707
H         35.76158       -8.73668        3.63314
N         33.74070      -12.96458        1.43645
C         33.69292      -12.92892       -0.01704
C         32.28859      -12.69919       -0.56169
O         31.35215      -12.61135        0.22019
H         32.87090      -12.89001        1.98376
H         34.09250      -13.88155       -0.42767
H         34.34484      -12.09840       -0.33152
N         32.02393      -12.56198       -1.89599
C         33.00866      -12.63626       -2.97782
C         34.13852      -11.64330       -2.77055
O         35.28763      -12.04584       -2.89300
C         32.35714      -12.43735       -4.37311
C         31.35396      -13.55433       -4.72229
O         31.77337      -11.16224       -4.49789
H         31.04012      -12.38308       -2.14655
H         33.45512      -13.65695       -2.98501
H         33.16245      -12.50888       -5.13719
H         30.88485      -11.17789       -4.05698
H         30.96036      -13.40065       -5.74935
H         31.85672      -14.54475       -4.68732
H         30.49434      -13.57318       -4.02109
N         33.89303      -10.37804       -2.31514
C         34.95999       -9.46591       -1.89282
C         34.93701       -9.31003       -0.37470
O         33.88350       -9.50716        0.21619
C         34.85545       -8.07433       -2.57914
C         33.50575       -7.37228       -2.26073
C         35.09075       -8.21326       -4.09071
C         33.46279       -5.90819       -2.69231
H         32.91372      -10.09889       -2.15732
H         35.93863       -9.91571       -2.15478
H         35.67245       -7.44042       -2.17077
H         33.33877       -7.36796       -1.16344
H         32.66237       -7.91636       -2.73659
H         36.07475       -8.69491       -4.27633
H         34.29593       -8.83106       -4.55941
H         35.11629       -7.22130       -4.58388
H         34.27193       -5.34007       -2.18526
H         33.56347       -5.80207       -3.78986
H         32.48689       -5.46998       -2.39318
N         36.04304       -8.99713        0.36587
C         37.40402       -8.88379       -0.14198
C         38.18365       -7.85688        0.67683
O         38.30942       -8.03379        1.88009
C         38.07552      -10.27395       -0.04712
C         39.42084      -10.36224       -0.72005
O         40.10260      -11.52247       -0.67650
O         39.89506       -9.41164       -1.32287
H         35.92089       -8.98291        1.38322
H         37.39187       -8.58078       -1.20692
H         37.42506      -11.02908       -0.53839
H         38.17792      -10.56159        1.02281
N         38.72210       -6.75179        0.08747
C         39.52869       -5.74920        0.79524
C         39.71197       -4.51548       -0.08221
O         40.06192       -4.67913       -1.24474
C         40.96109       -6.25183        1.12463
C         41.06840       -7.30201        2.19950
C         41.10825       -6.93439        3.55754
C         41.18386       -8.65574        1.85515
C         41.25120       -7.91291        4.54807
C         41.30521       -9.63227        2.84600
C         41.34217       -9.26157        4.19220
H         38.52549       -6.60972       -0.91542
H         39.02169       -5.46177        1.73541
H         41.57213       -5.39080        1.48250
H         41.46680       -6.59457        0.19588
H         41.04749       -5.89244        3.84855
H         41.17159       -8.95100        0.81933
H         41.29534       -7.62681        5.59135
H         41.37769      -10.67526        2.56753
H         41.44839      -10.01895        4.95797
N         39.61603       -3.24144        0.41572
C         39.43486       -2.91230        1.82496
C         38.03968       -3.14460        2.36253
O         37.89029       -3.21297        3.57475
C         39.74642       -1.40854        1.88906
C         40.72008       -1.23505        0.73750
C         40.03388       -2.07335       -0.33102
H         40.20353       -3.47142        2.40491
H         38.83701       -0.82413        1.61158
H         40.09736       -1.05295        2.88134
H         40.90624       -0.18041        0.44365
H         41.68616       -1.71867        1.00896
H         39.12477       -1.54191       -0.69354
H         40.70714       -2.28856       -1.18852
N         36.95859       -3.09631        1.53181
C         35.58646       -3.05479        2.01489
C         35.03976       -1.66782        1.69606
O         34.90156       -1.37594        0.51564
C         34.71735       -4.13371        1.32864
C         35.10848       -5.59104        1.62476
C         34.84694       -5.99328        3.05278
O         34.00328       -6.84074        3.29950
O         35.54784       -5.44885        4.06473
H         37.11074       -2.97151        0.51928
H         35.55089       -3.24149        3.09154
H         34.78139       -3.98350        0.22807
H         33.65335       -3.99689        1.62542
H         36.16979       -5.77897        1.36096
H         34.47830       -6.23253        0.96895
N         34.72484       -0.71852        2.63058
C         34.88765       -0.80852        4.07102
H         35.56379        0.00656        4.40575
H         33.90187       -0.67131        4.56055
H         35.32419       -1.74801        4.43944
H         34.35756        0.18182        2.28504
Ca        32.09230      -14.21282        7.89171
O         34.85708      -13.51157        9.22623
H         35.66756      -13.38276        8.67243
H         35.07642      -13.08866       10.09410
O         32.19642      -10.89772        9.46969
H         32.59406      -10.11563        9.01057
H         32.94720      -11.29301        9.98012
O         33.69095      -11.77415        7.02951
H         34.20637      -10.92978        7.06286
H         32.95115      -11.59257        6.39796
O         30.31347      -12.12846        6.40126
H         30.07251      -11.18312        6.23209
H         29.53870      -12.64820        6.07031

Ca 1.0



