%chk=apoCaM-CA-Ng.loop1.water1.frame909.chk
%nprocshared=20
%mem=10GB
%nosave
#b3lyp/svp scf=(tight,noincore,xqc) Test 
#IOP(5/87=12) Density=Current Pop=(MK,readradii) iop(6/33=2) iop(6/42=6)

apoCaM-CA-Ng.loop1.water1.frame909 

   0  1 
C        101.79932       16.05148       95.10670
C        101.83843       17.52025       95.40481
O        102.80318       18.17682       95.03899
H        100.91684       15.82494       94.47319
H        102.71859       15.73323       94.56972
H        101.72567       15.47959       96.05574
N        100.81480       18.09969       96.09284
C        100.78314       19.51403       96.44562
C        100.92669       19.66369       97.94954
O        100.12894       19.12325       98.70146
C         99.54142       20.22470       95.85948
C         98.17826       19.72843       96.27977
O         98.01881       18.69608       97.12822
O         97.18717       20.27806       95.82684
H        100.04195       17.49475       96.40656
H        101.64759       20.03553       95.97941
H         99.59811       20.14344       94.75166
H         99.60979       21.30322       96.12283
N        101.98092       20.36395       98.45339
C        102.28364       20.46354       99.87462
C        101.14320       21.09928      100.65184
O        100.76990       22.22990      100.37318
C        103.60457       21.24137      100.06071
C        104.04911       21.37432      101.52611
C        105.45295       22.00010      101.59043
C        105.97691       22.20170      103.02119
N        105.22711       23.22867      103.74678
H        102.62957       20.81252       97.78771
H        102.46299       19.43408      100.25755
H        103.51223       22.25839       99.61886
H        104.39177       20.68809       99.50101
H        104.08393       20.37050      102.00359
H        103.31118       22.00315      102.06575
H        105.46706       22.97672      101.05924
H        106.15424       21.31309      101.06680
H        107.03848       22.52842      102.95120
H        105.95224       21.24005      103.58000
H        105.25781       24.13224      103.21999
H        104.23624       22.93555      103.89478
H        105.67097       23.37425      104.68214
N        100.58895       20.41419      101.69282
C         99.55683       20.95599      102.58004
C         99.42846       20.10973      103.85388
O         99.92031       18.98996      103.87593
C         98.20617       21.13060      101.83268
C         97.65246       19.87932      101.19823
O         98.29543       18.69835      101.27059
O         96.59997       19.94369      100.58323
H        100.98696       19.48624      101.89590
H         99.92688       21.94523      102.92691
H         98.33818       21.87797      101.02352
H         97.42993       21.52366      102.51623
N         98.87800       20.57672      105.01312
C         98.26743       21.87895      105.22481
C         99.08190       22.73043      106.16730
O        100.24060       22.43393      106.40656
H         98.91470       19.95745      105.83932
H         97.26001       21.69934      105.65795
H         98.14113       22.47162      104.30332
N         98.52010       23.84369      106.71385
C         99.21448       24.78509      107.59264
C         99.74653       24.10385      108.84885
O         98.98734       23.44407      109.54554
C         98.24007       25.92653      107.97715
C         98.85341       27.05265      108.77323
O         98.07854       28.08856      109.14582
O        100.03662       27.05530      109.07326
H         97.53403       24.03562      106.47509
H        100.05587       25.24143      107.02526
H         97.39024       25.50301      108.55596
H         97.83479       26.37524      107.04414
N        101.04764       24.28509      109.22531
C        101.61880       23.73979      110.44890
C        101.93479       22.26080      110.37439
O        102.43433       21.73063      111.35609
H        101.64608       24.90633      108.66031
H        100.94812       23.96332      111.30710
H        102.58877       24.24794      110.64063
N        101.71077       21.53774      109.24274
C        102.05470       20.13229      109.08303
C        100.78010       19.32428      108.89972
O         99.70359       19.89900      108.79863
C        103.01147       19.99110      107.86410
C        104.29662       20.80519      108.05593
O        103.36333       18.64818      107.65785
H        101.29010       21.99807      108.43421
H        102.55829       19.74760      109.99700
H        102.47234       20.38042      106.96623
H        103.57775       18.54825      106.69295
H        104.94441       20.70028      107.15934
H        104.07067       21.88390      108.18872
H        104.85499       20.43879      108.94355
N        100.82970       17.96465      108.87093
C         99.64213       17.13489      108.71842
C         98.77462       17.26418      109.96608
O         97.61262       17.62318      109.83431
C        100.02500       15.65920      108.39369
C        100.99059       15.54164      107.17102
C         98.75971       14.81644      108.14554
C        100.49861       16.19837      105.87450
H        101.74391       17.50610      108.97488
H         99.06308       17.49780      107.84013
H        100.55596       15.21850      109.26615
H        101.19102       14.46674      106.97163
H        101.97136       15.99818      107.41414
H         98.10918       14.80949      109.04421
H         98.16947       15.21842      107.29537
H         99.03638       13.76465      107.92005
H        101.25701       16.04940      105.07680
H         99.54384       15.75485      105.52896
H        100.37380       17.29281      106.00781
N         99.29854       17.05923      111.21388
C         98.54359       17.27532      112.45344
C         98.62899       16.04868      113.36392
O         99.35436       15.11544      113.04528
C         99.10901       18.53593      113.17272
C         99.05543       19.77515      112.27208
O         98.37271       18.81125      114.33534
H        100.29926       16.81812      111.29181
H         97.47073       17.45622      112.22318
H        100.17366       18.33302      113.43939
H         98.95372       19.35746      114.92692
H         99.68324       19.62963      111.37508
H         98.00981       19.98543      111.96064
H         99.45220       20.65842      112.81540
N         97.91839       15.99694      114.53292
C         98.02599       14.91256      115.50822
C         96.70245       14.19340      115.73500
O         96.68141       13.28543      116.55514
C         98.56336       15.46514      116.85964
C         97.58276       16.40138      117.58314
O         99.77142       16.15066      116.65163
H         97.28195       16.77290      114.75923
H         98.75699       14.15193      115.15616
H         98.73431       14.60983      117.55738
H        100.49584       15.47233      116.65428
H         97.35950       17.30399      116.98009
H         96.63106       15.87577      117.81269
H         98.02429       16.72824      118.54857
N         95.55997       14.52803      115.06417
C         94.28027       13.88966      115.34787
C         93.25060       14.25126      114.29541
O         92.93501       15.42094      114.12364
C         93.75326       14.29625      116.74993
C         92.36931       13.68011      117.03948
C         91.84476       14.04511      118.43101
C         90.43096       13.47547      118.62944
N         89.91847       13.77996      119.96385
H         95.59582       15.24247      114.32334
H         94.42248       12.78620      115.32983
H         93.67269       15.40455      116.80803
H         94.46703       13.96186      117.53161
H         92.43144       12.57345      116.95149
H         91.63727       14.05530      116.29166
H         91.80685       15.15146      118.53942
H         92.53085       13.63121      119.20142
H         90.44788       12.37182      118.48871
H         89.74708       13.91331      117.86705
H         89.88225       14.81481      120.11009
H         88.95173       13.39109      120.05364
H         90.52884       13.33907      120.68952
N         92.62699       13.25287      113.61156
C         91.51422       13.47312      112.70209
C         91.90204       14.36721      111.52937
O         91.25315       15.39216      111.37498
C         90.90543       12.11683      112.27182
C         89.60201       12.27436      111.48074
C         88.98658       10.92986      111.21311
O         88.80711       10.55084      110.06725
O         88.61924       10.13900      112.24080
H         92.91025       12.27939      113.80452
H         90.71295       13.98675      113.28269
H         90.67240       11.55175      113.20278
H         91.62176       11.51133      111.68118
H         89.80858       12.79764      110.52222
H         88.87554       12.87718      112.06714
N         92.92019       14.11283      110.65437
C         93.83553       12.99126      110.70149
H         94.87272       13.37688      110.79344
H         93.66263       12.30986      111.54834
H         93.75290       12.41131      109.75921
H         93.07736       14.79072      109.89225
Ca        97.41624       16.92298      100.17593
O        100.42720       16.29778       99.91255
H        100.68991       15.35979       99.73561
H        100.31162       16.34317      100.89508

Ca 1.0



