%chk=apoCaM-CA-Ng.loop1.water6.frame562.chk
%nprocshared=20
%mem=10GB
%nosave
#b3lyp/svp scf=(tight,noincore,xqc) Test 
#IOP(5/87=12) Density=Current Pop=(MK,readradii) iop(6/33=2) iop(6/42=6)

apoCaM-CA-Ng.loop1.water6.frame562 

   0  1 
C         77.31906       36.00172       71.09345
C         76.59088       37.22536       70.61803
O         76.76590       38.29220       71.18914
H         77.97100       36.23799       71.96093
H         76.58241       35.22958       71.40246
H         77.94576       35.59413       70.27264
N         75.73905       37.13285       69.56128
C         74.96154       38.25973       69.05049
C         74.00949       38.76589       70.11639
O         73.39312       37.95004       70.78933
C         74.14952       37.84199       67.80824
C         75.04031       37.37000       66.69120
O         75.88116       38.11619       66.21476
O         74.90927       36.12021       66.20708
H         75.63597       36.21077       69.10829
H         75.64738       39.07937       68.73831
H         73.56551       38.71421       67.44035
H         73.43607       37.03315       68.07931
N         73.79500       40.10435       70.28351
C         72.89533       40.63890       71.29867
C         71.62608       41.15155       70.64294
O         71.68342       42.08372       69.85266
C         73.59853       41.75723       72.09135
C         72.71263       42.29855       73.22546
C         73.36325       43.50021       73.91637
C         72.46044       44.03402       75.03665
N         73.03452       45.23222       75.64642
H         74.25412       40.76621       69.63844
H         72.62253       39.83596       72.01813
H         73.85471       42.58337       71.39085
H         74.54462       41.36716       72.52710
H         72.52546       41.48632       73.96199
H         71.73691       42.63474       72.81277
H         73.51861       44.30339       73.16237
H         74.34995       43.20991       74.33877
H         72.32966       43.24725       75.81283
H         71.45893       44.28628       74.62124
H         73.12061       45.98993       74.93012
H         72.40198       45.56278       76.41053
H         73.97509       45.01832       76.04996
N         70.43573       40.55477       70.93254
C         69.15396       40.94610       70.36327
C         68.14350       41.13832       71.49213
O         67.97991       40.20734       72.26768
C         68.69047       39.81468       69.42382
C         67.38683       40.12659       68.74435
O         66.42575       39.39067       68.89728
O         67.27970       41.20388       67.94375
H         70.44012       39.73870       71.56449
H         69.26112       41.86328       69.74844
H         68.59705       38.86503       69.99722
H         69.45881       39.66236       68.63510
N         67.37689       42.25610       71.65692
C         67.42077       43.42618       70.79796
C         66.23947       44.33819       71.08334
O         66.09755       44.81864       72.19763
H         66.68545       42.24111       72.42235
H         67.35108       43.09718       69.74210
H         68.38311       43.96220       70.93754
N         65.33421       44.59167       70.09652
C         64.10679       45.37052       70.26553
C         63.16207       44.75402       71.29481
O         62.74752       43.61443       71.13923
C         63.37510       45.55270       68.90485
C         63.10684       44.29076       68.11164
O         62.57733       44.37048       67.01521
O         63.52740       43.09203       68.55385
H         65.54094       44.20415       69.16525
H         64.37878       46.39277       70.60849
H         64.01573       46.19278       68.26105
H         62.41883       46.09413       69.07686
N         62.73767       45.49671       72.35993
C         61.75819       45.03146       73.33344
C         62.24818       43.93902       74.26211
O         61.46479       43.52097       75.10387
H         63.06447       46.47046       72.45065
H         60.84411       44.69380       72.79900
H         61.47195       45.88884       73.98181
N         63.51762       43.44715       74.20552
C         64.04101       42.43932       75.12150
C         64.43615       41.19242       74.34004
O         64.43564       41.22984       73.11697
C         65.22111       43.09723       75.89571
C         65.86690       42.24032       76.97981
O         66.22530       43.49841       74.99451
H         64.16722       43.81373       73.49940
H         63.25692       42.13702       75.85018
H         64.79273       43.98347       76.42588
H         66.25623       44.49069       74.99744
H         65.10616       41.88242       77.70474
H         66.40964       41.39099       76.52806
H         66.62047       42.84631       77.52714
N         64.77336       40.03717       74.97930
C         65.25144       38.85384       74.26750
C         64.16142       38.31252       73.34762
O         64.39706       38.23296       72.15269
C         65.79155       37.75402       75.24210
C         66.92318       38.32625       76.14772
C         66.32149       36.55367       74.42721
C         67.48681       37.33353       77.16576
H         64.70423       40.01403       76.00576
H         66.12011       39.16114       73.64577
H         64.96143       37.40217       75.89292
H         66.53277       39.16409       76.75079
H         67.75671       38.71180       75.52047
H         67.16868       36.86923       73.77969
H         66.66066       35.73224       75.08777
H         65.52660       36.12245       73.78525
H         68.00667       36.48974       76.67125
H         68.23362       37.85235       77.80442
H         66.67445       36.94657       77.81645
N         62.96484       37.88784       73.85253
C         61.87994       37.32404       73.03191
C         60.87620       36.54141       73.88518
O         61.01389       36.48490       75.09766
C         61.17035       38.40600       72.16318
C         60.64528       39.59695       72.98545
O         62.00276       38.83551       71.11753
H         62.85098       37.93454       74.87436
H         62.31173       36.54777       72.36220
H         60.28950       37.95440       71.66381
H         62.52708       39.60862       71.43886
H         60.12676       40.31110       72.30985
H         59.93089       39.25601       73.76168
H         61.48558       40.13339       73.47736
N         59.86908       35.84050       73.27653
C         58.99481       34.91052       73.98254
C         59.21235       33.52881       73.38414
O         59.74048       32.67249       74.08138
C         57.51974       35.39123       73.95858
C         56.58942       34.39456       74.66443
O         57.07756       35.60450       72.64374
H         59.76076       35.90454       72.25488
H         59.28537       34.85589       75.05588
H         57.49092       36.36084       74.50926
H         56.26613       36.17434       72.69889
H         56.58364       33.41833       74.13357
H         56.91724       34.23371       75.71308
H         55.55095       34.78782       74.67669
N         58.84645       33.24166       72.09960
C         59.11877       31.96674       71.45037
C         59.79081       32.24173       70.11788
O         59.19101       32.91408       69.28846
C         57.81165       31.17924       71.26228
C         58.10297       29.75943       70.75497
C         56.82537       28.93009       70.61616
C         57.16870       27.49391       70.19764
N         55.96035       26.68548       70.05094
H         58.35532       33.95531       71.54415
H         59.78163       31.34871       72.09579
H         57.12680       31.71749       70.57009
H         57.30970       31.09549       72.25187
H         58.77704       29.25754       71.48461
H         58.61501       29.80456       69.76990
H         56.16272       29.39856       69.85596
H         56.29132       28.90368       71.59144
H         57.82418       27.03299       70.97096
H         57.72238       27.50606       69.23235
H         55.43458       26.65621       70.95464
H         55.35268       27.08457       69.29929
H         56.23299       25.71136       69.78617
N         61.05062       31.79136       69.86021
C         61.77401       32.12187       68.63694
C         62.86198       33.15931       68.92161
O         62.75788       34.22935       68.33764
C         62.30494       30.87358       67.90143
C         61.18401       29.92735       67.44872
C         61.74695       28.78261       66.65203
O         62.33999       28.99415       65.60540
O         61.59285       27.51646       67.08343
H         61.51978       31.23348       70.58205
H         61.08284       32.61186       67.91253
H         63.00268       30.29659       68.53155
H         62.85312       31.22413       66.99804
H         60.45407       30.47283       66.81244
H         60.65294       29.53059       68.33993
N         63.92317       33.00565       69.77270
C         64.23177       31.84397       70.57917
H         65.15799       32.03692       71.16019
H         63.43950       31.64900       71.32255
H         64.43122       30.95941       69.95054
H         64.57425       33.80158       69.86255
Ca        63.69580       41.26257       67.24336
O         62.39482       40.98710       64.60167
H         61.78442       40.39661       65.11118
H         62.27557       41.88042       65.01263
O         64.39466       40.91603       70.24134
H         64.82698       41.74777       70.55525
H         63.44238       41.16195       70.13512
O         65.75743       43.24999       65.94444
H         65.14355       43.55790       65.23109
H         66.64247       43.60957       65.68447
O         63.96170       38.07859       67.42928
H         63.11925       37.74412       67.03093
H         63.98369       37.68067       68.33576
O         61.28731       40.11621       68.41088
H         61.00987       40.79812       67.74848
H         60.84157       39.28417       68.11350
O         66.01636       39.96603       65.38409
H         66.11422       38.99208       65.23536
H         66.76437       40.37177       64.87775

Ca 1.0



