%chk=apoCaM-CA-Ng.loop4.water5.frame1019.chk
%nprocshared=20
%mem=10GB
%nosave
#b3lyp/svp scf=(tight,noincore,xqc) Test 
#IOP(5/87=12) Density=Current Pop=(MK,readradii) iop(6/33=2) iop(6/42=6)

apoCaM-CA-Ng.loop4.water5.frame1019 

   -3  1 
C         40.17890       42.27696       25.70454
C         40.75107       40.90083       25.46578
O         41.40803       40.40770       26.36753
H         39.49495       42.25205       26.57689
H         41.01492       42.97566       25.92130
H         39.63043       42.69965       24.84501
N         40.58418       40.19850       24.30348
C         39.71144       40.63069       23.22003
C         38.28455       40.55915       23.72328
O         37.62193       41.58471       23.78750
C         39.88203       39.75916       21.95664
C         41.28836       39.82235       21.43260
O         41.95118       38.80255       21.32666
O         41.82222       41.00528       21.07404
H         41.07468       39.29447       24.20956
H         39.97735       41.66843       22.91916
H         39.19729       40.12759       21.16191
H         39.62363       38.70444       22.16760
N         37.75826       39.36147       24.11723
C         36.42407       39.21938       24.68757
C         35.41479       38.72555       23.66838
O         34.22876       38.81727       23.95900
C         36.44632       38.39433       26.01583
C         37.18198       37.02209       25.95583
C         37.09672       39.23095       27.12997
C         36.65055       36.03279       24.92302
H         38.32415       38.51220       23.98830
H         36.02545       40.23020       24.92888
H         35.39256       38.21803       26.32717
H         37.08724       36.53643       26.95213
H         38.26835       37.16932       25.77222
H         36.54979       40.18850       27.26294
H         37.05604       38.68442       28.09712
H         38.15859       39.45484       26.89143
H         37.20925       35.07650       25.01499
H         35.57131       35.83616       25.08602
H         36.81771       36.40289       23.89699
N         35.78197       38.25142       22.44295
C         34.82061       37.98973       21.37462
C         35.32023       38.67530       20.10214
O         36.46849       39.10545       20.07669
C         34.69162       36.45938       21.18958
C         33.48920       35.97689       20.41412
O         33.34686       34.65856       20.18424
O         32.60350       36.73655       20.06032
H         36.78054       38.08787       22.24436
H         33.83091       38.40523       21.66529
H         34.59431       35.98852       22.19164
H         35.62440       36.07599       20.72313
N         34.54118       38.81920       18.99507
C         35.07712       39.35664       17.75788
C         36.05499       38.38722       17.12917
O         36.23531       37.28353       17.62859
H         33.54960       38.55923       19.01297
H         35.56111       40.33817       17.95643
H         34.25373       39.51745       17.02921
N         36.71736       38.74009       15.99696
C         37.60423       37.82357       15.28948
C         36.77663       36.67460       14.72379
O         35.73896       36.94635       14.13539
C         38.35212       38.53459       14.14340
C         39.30307       39.58551       14.65893
O         38.88804       40.56316       15.26026
O         40.62743       39.45008       14.45332
H         36.56289       39.68717       15.61906
H         38.38813       37.45534       15.98515
H         37.63791       38.98794       13.42339
H         38.95668       37.77488       13.59934
N         37.16130       35.36777       14.80071
C         38.46244       34.95881       15.31376
C         38.77559       33.49422       15.04983
O         37.88283       32.77836       14.61660
H         36.53344       34.67143       14.37061
H         38.54900       35.18583       16.39471
H         39.17772       35.55418       14.73697
N         40.01795       32.93270       15.19775
C         41.28616       33.53351       15.62782
C         41.39089       33.76084       17.13075
O         40.59335       34.49095       17.70037
C         41.71105       34.82740       14.88524
C         41.52960       34.82835       13.35377
C         42.34066       33.81958       12.58212
N         42.22756       33.77734       11.23434
O         43.09903       33.04789       13.14890
H         40.09480       31.94556       14.90083
H         42.06519       32.78574       15.36798
H         42.77686       35.03759       15.12694
H         41.16080       35.69306       15.29893
H         41.81794       35.83723       12.98584
H         40.46121       34.67218       13.10459
H         41.59466       34.42560       10.74146
H         42.76971       33.09828       10.68092
N         42.46406       33.24929       17.80356
C         42.81021       33.60249       19.17905
C         41.83377       33.06299       20.20560
O         41.61138       31.86233       20.26853
C         44.26726       33.17933       19.54933
C         45.28573       33.94457       18.68953
C         44.54253       31.66557       19.46142
H         43.13389       32.68296       17.26576
H         42.81066       34.71338       19.25287
H         44.44499       33.49113       20.60399
H         45.19037       33.68431       17.61503
H         45.13584       35.03929       18.80420
H         46.31899       33.70788       19.01976
H         45.58539       31.45660       19.78059
H         43.88264       31.09138       20.13686
H         44.41728       31.28019       18.42958
N         41.26740       33.92102       21.10009
C         40.45530       33.49572       22.23194
C         41.11483       33.96316       23.52868
O         40.48957       34.60306       24.36221
C         38.99735       33.94035       22.01097
C         38.88334       35.39398       21.62851
N         38.47743       35.74201       20.38274
O         39.18508       36.25947       22.43327
H         41.46087       34.93058       21.01150
H         40.43101       32.38540       22.30412
H         38.36612       33.70899       22.89580
H         38.61135       33.32891       21.16600
H         38.24143       35.02293       19.68178
H         38.41918       36.73215       20.10485
N         42.41058       33.60445       23.75265
C         43.18137       33.84475       24.97383
C         44.44299       34.64504       24.65456
O         44.64747       35.00392       23.50379
C         43.54251       32.47811       25.62370
C         44.25306       31.55905       24.65619
C         45.65404       31.50039       24.61259
C         43.50475       30.78828       23.74909
C         46.29466       30.70700       23.65435
C         44.14381       30.00053       22.79374
C         45.54284       29.96426       22.73572
O         46.17162       29.22765       21.79846
H         42.88697       33.09885       22.99324
H         42.58767       34.42615       25.71375
H         42.61797       31.97290       25.97913
H         44.15912       32.62907       26.53511
H         46.24738       32.08422       25.30313
H         42.42166       30.81961       23.76747
H         47.37607       30.68205       23.61553
H         43.54823       29.43188       22.09093
H         45.68334       28.72678       21.12905
N         45.34041       34.95693       25.63778
C         46.55860       35.72932       25.41040
C         46.46291       36.98262       26.24945
O         47.19494       37.16029       27.21431
C         47.80054       34.86498       25.71265
C         49.10163       35.58011       25.30283
C         50.29173       34.68298       25.47699
O         50.61824       34.21819       26.69762
O         50.97541       34.37813       24.51232
H         45.15294       34.64640       26.60345
H         46.64258       36.03572       24.34446
H         47.72496       33.94088       25.10056
H         47.82707       34.57347       26.78623
H         49.25784       36.49863       25.90525
H         49.02852       35.87655       24.23244
N         45.51502       37.89601       25.92405
C         45.19638       39.04760       26.74574
C         44.33145       38.55450       27.88615
O         44.67369       38.77355       29.03938
C         44.44536       40.12170       25.92827
C         45.27619       40.76417       24.80046
C         45.64012       39.77956       23.68954
O         46.34675       40.43788       22.67708
O         44.47496       39.25849       23.11191
H         44.92138       37.69954       25.10479
H         46.12309       39.52987       27.13346
H         44.15719       40.93982       26.62549
H         43.52534       39.69007       25.48934
H         46.20404       41.20338       25.22695
H         44.67844       41.58848       24.35270
N         43.20721       37.82804       27.61511
C         42.34349       37.26180       28.62860
H         41.30824       37.63133       28.47559
H         42.34485       36.15510       28.52760
H         42.66916       37.52213       29.65659
H         42.95907       37.63240       26.63338
Ca        44.80754       40.09721       21.03891
O         45.73667       37.11551       21.43039
H         46.58241       36.95293       20.94270
H         45.19760       36.30066       21.27262
O         45.35564       43.00278       20.74133
H         46.32891       42.95357       20.91673
H         45.28122       43.00382       19.75401
O         47.10320       40.09764       19.20279
H         47.88346       40.50798       19.65348
H         47.47936       39.33960       18.68925
O         44.29204       37.96467       18.54323
H         44.73850       37.44035       17.83188
H         43.42211       38.22591       18.14915
O         43.34819       41.07616       18.47996
H         42.40519       40.80835       18.34002
H         43.48306       41.84333       17.86940

Ca 1.0



