%chk=apoCaM-CA-Ng.loop4.water3.frame478.chk
%nprocshared=20
%mem=10GB
%nosave
#b3lyp/svp scf=(tight,noincore,xqc) Test 
#IOP(5/87=12) Density=Current Pop=(MK,readradii) iop(6/33=2) iop(6/42=6)

apoCaM-CA-Ng.loop4.water3.frame478 

   -3  1 
C         30.68197       57.95422      102.61895
C         29.58503       57.73387      103.62123
O         29.36888       56.59918      104.00832
H         31.64562       57.59988      103.04128
H         30.46134       57.38864      101.69005
H         30.78880       59.02926      102.36087
N         28.86744       58.78868      104.10028
C         27.80376       58.72396      105.10466
C         28.28064       58.21936      106.50558
O         27.82662       56.93695      106.80210
C         26.48859       58.11366      104.53756
C         26.55829       56.70454      103.99296
O         26.79954       55.65289      104.79691
O         26.35256       56.50483      102.80584
H         29.11082       59.73003      103.75481
H         27.53312       59.78207      105.31852
H         26.17584       58.77142      103.69573
H         25.68989       58.16129      105.30784
N         29.73387       58.35054      106.69232
C         30.34493       58.32091      108.04724
C         29.39414       58.02560      109.21103
O         29.19358       58.90930      110.03330
C         31.56213       57.34224      108.01824
C         32.36446       57.28464      109.34252
C         32.49396       57.63757      106.82540
C         33.06499       58.58429      109.73715
H         30.05073       59.24200      106.24104
H         30.74692       59.34330      108.23986
H         31.17962       56.31685      107.85825
H         33.14301       56.49979      109.24023
H         31.69524       56.97602      110.17268
H         32.89200       58.67156      106.86964
H         33.34046       56.92054      106.81369
H         31.95284       57.51883      105.86210
H         33.62785       58.41703      110.67937
H         33.79324       58.89598      108.96088
H         32.33077       59.39584      109.90992
N         28.82840       56.79842      109.38568
C         28.00655       56.44712      110.53038
C         28.87415       56.02055      111.71929
O         28.70518       56.65399      112.75263
C         26.89327       55.45448      110.14211
C         25.90100       56.06584      109.18686
O         25.69440       55.55400      108.09872
O         25.20868       57.16544      109.54211
H         29.04432       56.05106      108.72496
H         27.44851       57.35123      110.87183
H         26.33192       55.16163      111.05604
H         27.32169       54.55575      109.67189
N         29.85370       55.05548      111.72881
C         30.31899       54.20474      110.63760
C         29.39985       53.03949      110.35505
O         28.36558       52.93832      110.99981
H         30.38611       54.96158      112.60893
H         31.28058       53.74843      110.95690
H         30.53650       54.80942      109.74268
N         29.69985       52.05557      109.45156
C         30.95355       51.91234      108.69755
C         31.22408       53.13937      107.77933
O         30.25297       53.20998      106.77763
C         30.93896       50.52748      107.96479
C         29.82022       50.30377      106.97379
O         28.87191       49.38398      107.23380
O         29.80358       50.88542      105.90178
H         28.99468       51.30754      109.35423
H         31.77947       51.87324      109.44031
H         30.83062       49.75937      108.76203
H         31.88223       50.30197      107.44160
N         32.54100       53.22479      107.11837
C         33.75141       52.52130      107.58453
C         34.47405       53.14301      108.75141
O         33.97587       54.06886      109.37366
H         32.75317       54.22793      106.91759
H         34.46328       52.54605      106.73190
H         33.57377       51.45967      107.80558
N         35.71167       52.65752      109.07158
C         36.54457       53.16016      110.15776
C         37.80192       53.87085      109.65279
O         38.51885       54.40742      110.48598
C         36.82924       52.03508      111.18754
C         37.43717       50.71997      110.65586
C         38.81327       50.85574      110.06735
N         39.85080       51.29998      110.81331
O         39.00010       50.52377      108.90831
H         36.09505       51.89765      108.48872
H         35.99333       53.94931      110.71547
H         35.85112       51.75655      111.63747
H         37.45925       52.43678      112.01031
H         36.75010       50.27058      109.90733
H         37.50419       50.00151      111.50092
H         39.71775       51.56038      111.80082
H         40.79446       51.37157      110.40495
N         38.08670       54.00665      108.31969
C         39.14285       54.88807      107.80864
C         40.20216       54.16843      106.98116
O         41.07194       54.85527      106.46041
C         38.50979       56.04933      106.98103
C         37.59642       56.91727      107.85840
C         37.74189       55.56349      105.73789
H         37.48561       53.54189      107.62719
H         39.69719       55.36424      108.64750
H         39.33422       56.70903      106.62794
H         38.16845       57.31964      108.72189
H         37.20941       57.77858      107.27293
H         36.73321       56.33215      108.24030
H         37.38389       56.43807      105.15486
H         38.40108       54.96210      105.07733
H         36.85599       54.95493      106.01336
N         40.21983       52.81437      106.81734
C         41.22664       52.11396      106.01742
C         40.59502       51.38790      104.82946
O         41.34566       50.84088      104.03305
C         41.95357       51.04847      106.88328
C         42.77486       51.50546      108.07337
N         43.00679       52.80540      108.37028
O         43.26491       50.64387      108.78822
H         39.49445       52.25188      107.27646
H         41.97116       52.82641      105.59993
H         42.64582       50.46273      106.23923
H         41.17850       50.34920      107.26500
H         42.65432       53.56933      107.78914
H         43.57758       53.05351      109.19227
N         39.24113       51.25947      104.68489
C         38.63005       50.37819      103.69722
C         37.39936       51.00783      103.07565
O         36.51023       51.38399      103.82233
C         38.17702       49.08905      104.41878
C         39.33838       48.28486      104.94526
C         39.50678       48.08996      106.32520
C         40.25482       47.70380      104.05234
C         40.57851       47.33054      106.80395
C         41.32154       46.94050      104.53214
C         41.48844       46.75086      105.90734
O         42.52134       46.00859      106.35367
H         38.61067       51.66213      105.39011
H         39.34702       50.09008      102.89834
H         37.61478       48.43185      103.72318
H         37.48846       49.36773      105.24837
H         38.81183       48.52684      107.03053
H         40.13759       47.83271      102.98350
H         40.69810       47.19082      107.87070
H         42.01627       46.49272      103.83265
H         42.66925       45.84719      107.29625
N         37.23062       50.99942      101.71536
C         35.98091       51.28684      100.99996
C         35.63516       52.75989      100.83615
O         35.43810       53.17313       99.70069
C         34.76989       50.51981      101.58813
C         34.99858       49.00169      101.62128
C         33.82507       48.29295      102.23313
O         33.98989       47.56068      103.35174
O         32.71990       48.37158      101.72084
H         37.99202       50.59957      101.14590
H         36.10757       50.89642       99.96287
H         33.87646       50.72701      100.95775
H         34.53238       50.88288      102.60877
H         35.89828       48.77122      102.22373
H         35.16221       48.62082      100.59039
N         35.44301       53.59107      101.89869
C         34.84022       54.91513      101.76124
C         35.65182       55.89214      100.91912
O         35.13378       56.96422      100.63394
C         34.55393       55.55978      103.14172
C         33.79871       54.68678      104.16602
C         32.49086       54.14161      103.67018
O         32.46245       53.33472      102.75482
O         31.34488       54.49207      104.27919
H         35.62766       53.23646      102.83576
H         33.86638       54.76998      101.24388
H         33.96296       56.48720      102.97397
H         35.51693       55.85126      103.61297
H         33.61588       55.32158      105.05563
H         34.42204       53.83673      104.50855
N         36.91410       55.61925      100.48390
C         37.65138       56.55603       99.66356
H         38.65368       56.14394       99.42268
H         37.10431       56.73758       98.71322
H         37.77955       57.51757      100.20483
H         37.37777       54.73565      100.73554
Ca        29.36965       55.28076      106.48998
O         29.02455       53.71464      102.44469
H         28.75838       54.43024      101.81471
H         29.83283       53.31358      102.03769
O         27.08456       52.17724      104.18463
H         26.33425       51.80654      104.71345
H         27.27705       51.48184      103.50669
O         27.04016       52.86795      107.17061
H         26.86648       52.65394      108.12061
H         27.40187       53.78741      107.18895

Ca 1.0



