%chk=apoCaM-CA-Ng.loop4.water3.frame93.chk
%nprocshared=20
%mem=10GB
%nosave
#b3lyp/svp scf=(tight,noincore,xqc) Test 
#IOP(5/87=12) Density=Current Pop=(MK,readradii) iop(6/33=2) iop(6/42=6)

apoCaM-CA-Ng.loop4.water3.frame93 

   -3  1 
C         26.44437       44.92341       96.03037
C         25.08305       45.04661       95.41936
O         24.11455       44.98850       96.15414
H         27.03644       45.83698       95.81787
H         26.36391       44.80411       97.13422
H         26.95973       44.03417       95.61444
N         24.93288       45.25122       94.07825
C         23.63982       45.39763       93.41410
C         22.78821       46.48674       94.03388
O         21.74024       46.18461       94.56743
C         22.91371       44.04520       93.15220
C         22.84242       42.94395       94.19744
O         22.21196       43.02885       95.39000
O         23.32813       41.86242       93.90416
H         25.78254       45.35116       93.50256
H         23.81858       45.76957       92.37861
H         23.46553       43.58779       92.29812
H         21.89280       44.25728       92.76559
N         23.18262       47.79259       93.93497
C         22.46763       48.97747       94.42631
C         21.15798       49.23357       93.66588
O         21.12319       50.20167       92.91775
C         22.35097       48.98217       95.97388
C         21.62173       50.23527       96.53048
C         23.75357       48.84683       96.60368
C         22.23657       51.58291       96.14931
H         24.08176       47.97359       93.46128
H         23.12336       49.84125       94.17100
H         21.75731       48.10287       96.29179
H         21.61137       50.17881       97.63821
H         20.56698       50.22780       96.18332
H         24.41773       49.68135       96.29810
H         23.68991       48.84204       97.70715
H         24.23613       47.89620       96.29507
H         23.28212       51.66144       96.50658
H         22.20635       51.74101       95.05341
H         21.64540       52.39513       96.62223
N         20.05750       48.43001       93.76627
C         18.88299       48.59957       92.91771
C         17.98465       49.74483       93.39750
O         17.81040       50.67144       92.61877
C         18.17640       47.23933       92.69761
C         17.02566       47.33371       91.73273
O         15.94133       48.07260       92.03535
O         17.05957       46.72056       90.67754
H         20.06391       47.62943       94.40176
H         19.24326       48.85378       91.89245
H         17.81969       46.78285       93.63363
H         18.93165       46.53602       92.27923
N         17.36591       49.80596       94.61869
C         17.50684       48.80256       95.66318
C         16.71721       49.10332       96.93584
O         16.02159       50.10807       96.97237
H         16.78001       50.63514       94.79855
H         18.57699       48.75029       95.91648
H         17.13101       47.85500       95.27567
N         16.75670       48.30894       98.05749
C         17.53087       47.08151       98.25395
C         19.00693       47.36680       98.03479
O         19.56204       46.85665       97.07255
C         16.96828       45.90460       97.41446
C         17.59205       44.57198       97.75690
O         18.57063       44.46698       98.67886
O         17.19386       43.56509       97.19470
H         16.20295       48.62250       98.86971
H         17.38688       46.73857       99.30190
H         17.09951       46.05972       96.33250
H         15.87995       45.82055       97.62514
N         19.73319       48.19043       98.84836
C         19.28442       48.73409      100.11869
C         19.27228       50.24048      100.16951
O         19.53497       50.91102       99.18110
H         20.70589       48.38663       98.58910
H         19.97143       48.36174      100.90774
H         18.26648       48.39534      100.38273
N         18.90133       50.82946      101.33947
C         18.69575       52.26272      101.51264
C         19.99562       53.05378      101.55062
O         19.92189       54.27200      101.47651
C         17.90478       52.53506      102.82083
C         16.42405       52.10153      102.75481
C         16.20213       50.62812      102.52038
N         15.58688       50.19643      101.39347
O         16.57933       49.81701      103.35354
H         18.69125       50.20146      102.12748
H         18.09052       52.63773      100.65698
H         17.88445       53.63037      103.01114
H         18.42359       52.05774      103.68249
H         15.93960       52.68570      101.94381
H         15.92593       52.37508      103.70976
H         15.26514       50.86378      100.67684
H         15.43938       49.18985      101.22887
N         21.20653       52.45339      101.72545
C         22.46308       53.19770      101.82095
C         23.05481       53.12026      103.22122
O         24.15081       53.63934      103.40438
C         23.47164       52.72913      100.73404
C         22.96163       53.09143       99.33499
C         23.79740       51.22871      100.80981
H         21.24406       51.43303      101.85041
H         22.30033       54.28493      101.64937
H         24.42131       53.29173      100.88008
H         23.72159       52.81931       98.57328
H         22.01149       52.56396       99.10973
H         22.78924       54.18728       99.26340
H         24.57240       50.97180      100.05651
H         24.18938       50.96395      101.81388
H         22.90256       50.60964      100.59364
N         22.37798       52.57179      104.27489
C         22.90210       52.56810      105.63803
C         22.98269       51.16447      106.23696
O         23.50537       51.03515      107.33226
C         21.96574       53.39794      106.54671
C         21.56861       54.73490      105.96965
N         22.48574       55.69055      105.70496
O         20.38781       54.95480      105.73999
H         21.42450       52.20787      104.12743
H         23.91966       53.01719      105.65666
H         22.42938       53.53882      107.54731
H         21.03106       52.81895      106.68619
H         23.48494       55.53060      105.89110
H         22.18808       56.59586      105.31045
N         22.36526       50.09793      105.63959
C         22.15661       48.81650      106.30549
C         22.45643       47.68116      105.34588
O         21.88994       47.71746      104.26720
C         20.64994       48.69421      106.65530
C         20.07105       49.91602      107.32976
C         19.09903       50.67206      106.64806
C         20.47567       50.31806      108.61258
C         18.54268       51.80833      107.23259
C         19.91101       51.45836      109.20069
C         18.94331       52.20689      108.50973
O         18.39450       53.30944      109.05753
H         21.88011       50.22401      104.74482
H         22.73801       48.74052      107.25034
H         20.47309       47.79139      107.27952
H         20.08336       48.54616      105.70973
H         18.77501       50.38810      105.65428
H         21.22041       49.75063      109.15638
H         17.80277       52.38028      106.68668
H         20.22552       51.76092      110.19128
H         18.64039       53.62549      109.93790
N         23.19753       46.58843      105.71507
C         23.30366       45.34184      104.93615
C         24.29102       45.39069      103.77371
O         25.15617       44.52780      103.71281
C         21.92735       44.83413      104.42500
C         20.89623       44.66290      105.55067
C         19.56361       44.24770      104.99540
O         19.01208       43.07567      105.36170
O         18.96556       44.98009      104.22205
H         23.57770       46.57233      106.67281
H         23.68176       44.55374      105.62774
H         22.06693       43.85140      103.92242
H         21.52248       45.51638      103.65125
H         20.75069       45.61616      106.09821
H         21.26337       43.89786      106.26797
N         24.18247       46.31165      102.77644
C         24.94977       46.27605      101.53510
C         26.45322       46.42785      101.72827
O         27.16911       46.27958      100.74623
C         24.45482       47.38930      100.57341
C         22.94602       47.36177      100.24052
C         22.53427       46.16496       99.43585
O         22.61755       45.03950       99.89726
O         22.03953       46.34862       98.19903
H         23.47570       47.03447      102.86691
H         24.77956       45.28542      101.06323
H         25.02159       47.34627       99.61672
H         24.67193       48.36923      101.05209
H         22.73037       48.27172       99.64903
H         22.30777       47.42850      101.14187
N         27.01889       46.72191      102.93299
C         28.45288       46.83511      103.08839
H         28.84433       47.64044      102.43108
H         28.70294       47.07901      104.14218
H         28.93858       45.87165      102.82183
H         26.43557       46.87782      103.76591
Ca        21.55778       44.67955       96.77321
O         19.10566       44.34935       94.76443
H         19.13921       44.56679       93.79997
H         18.87633       43.38694       94.79007
O         20.00718       41.62949       96.75138
H         19.01819       41.65133       96.74219
H         20.23397       41.01979       97.49725
O         22.31163       42.44005       98.66785
H         23.18587       42.83119       98.41604
H         22.53913       41.59202       99.12396

Ca 1.0



