%chk=apoCaM-CA-Ng.loop3.water3.frame919.chk
%nprocshared=20
%mem=10GB
%nosave
#b3lyp/svp scf=(tight,noincore,xqc) Test 
#IOP(5/87=12) Density=Current Pop=(MK,readradii) iop(6/33=2) iop(6/42=6)

apoCaM-CA-Ng.loop3.water3.frame919 

   0  1 
C        -19.17172        2.14385       18.57059
C        -20.50821        1.53095       18.87220
O        -21.00673        0.77932       18.04553
H        -18.42848        1.33133       18.41234
H        -19.23304        2.76126       17.65210
H        -18.81495        2.77480       19.41116
N        -21.12865        1.76465       20.06541
C        -22.28939        0.99530       20.48826
C        -23.60841        1.60084       20.00175
O        -23.93190        2.71576       20.38445
C        -22.25944        0.80017       22.01688
C        -23.15760       -0.30750       22.49659
O        -23.18595       -0.61441       23.80546
O        -23.83017       -0.95822       21.71458
H        -20.64125        2.34983       20.76120
H        -22.14527       -0.01544       20.09553
H        -22.50194        1.75674       22.52438
H        -21.23489        0.49886       22.31789
N        -24.42455        0.90132       19.15904
C        -25.72806        1.36295       18.67872
C        -26.76285        1.45552       19.80085
O        -27.68649        2.24668       19.67208
C        -26.26431        0.40989       17.57865
C        -25.39647        0.45082       16.30443
C        -25.89501       -0.54459       15.24310
C        -25.22877       -0.34643       13.86713
N        -23.77438       -0.50760       13.90086
H        -24.09903       -0.00832       18.82786
H        -25.60718        2.37127       18.22310
H        -27.29309        0.72038       17.28818
H        -26.31711       -0.62664       17.98160
H        -24.33956        0.21170       16.54452
H        -25.44500        1.48256       15.89371
H        -26.98665       -0.40009       15.09129
H        -25.72991       -1.58416       15.60419
H        -25.47705        0.66790       13.48260
H        -25.65901       -1.09072       13.16018
H        -23.33492        0.23309       14.49228
H        -23.52086       -1.45640       14.25890
H        -23.40392       -0.40125       12.92827
N        -26.69778        0.64954       20.90147
C        -27.65672        0.67102       22.01067
C        -27.01347        1.09932       23.33500
O        -27.72963        1.19699       24.32245
C        -28.34409       -0.71286       22.15044
C        -27.37334       -1.87618       22.20091
O        -27.48253       -2.78286       21.39407
O        -26.36031       -1.89289       23.09224
H        -25.92685       -0.02479       20.95788
H        -28.45711        1.42121       21.82015
H        -29.01915       -0.86092       21.27771
H        -28.98455       -0.71160       23.05906
N        -25.69163        1.41705       23.42854
C        -25.04201        1.92217       24.63150
C        -24.90529        0.96387       25.81059
O        -24.29130        1.38659       26.77992
H        -25.11486        1.38985       22.58107
H        -25.57038        2.84020       24.96986
H        -24.00908        2.22229       24.35470
N        -25.44809       -0.29173       25.85024
C        -25.38511       -1.14493       27.04003
C        -25.00112       -2.58412       26.69900
O        -25.58479       -3.15947       25.79391
C        -26.76641       -1.12172       27.72692
C        -26.78114       -1.73075       29.11669
N        -27.92525       -1.73460       29.83527
O        -25.76648       -2.19564       29.61396
H        -26.01795       -0.61458       25.06377
H        -24.66834       -0.72641       27.78058
H        -27.51667       -1.62777       27.08096
H        -27.07279       -0.06030       27.84899
H        -28.79162       -1.33789       29.44502
H        -27.94060       -2.12806       30.78826
N        -24.12187       -3.26849       27.48524
C        -23.83914       -4.69085       27.34438
C        -22.87241       -4.96205       26.22917
O        -21.80931       -4.35539       26.24019
H        -23.70856       -2.78849       28.29821
H        -24.77925       -5.28003       27.26191
H        -23.32363       -5.02856       28.26957
N        -23.11542       -5.91519       25.27731
C        -22.11823       -6.23393       24.25726
C        -22.03181       -5.12631       23.17168
O        -22.31677       -3.86302       23.69885
C        -22.40471       -7.59492       23.57320
C        -22.37007       -8.77927       24.51091
C        -23.49896       -9.60405       24.64825
C        -21.19853       -9.10051       25.22108
C        -23.45815      -10.72783       25.47903
C        -21.16168      -10.22306       26.05493
C        -22.28818      -11.04154       26.18508
O        -22.23312      -12.12701       26.98330
H        -23.97614       -6.47975       25.34107
H        -21.13194       -6.31532       24.76730
H        -21.64032       -7.80503       22.79836
H        -23.38513       -7.53751       23.05863
H        -24.40836       -9.38620       24.10266
H        -20.30901       -8.49125       25.12391
H        -24.33440      -11.35748       25.56729
H        -20.25319      -10.46223       26.59398
H        -22.98665      -12.72486       27.09187
N        -20.67834       -5.16303       22.57045
C        -20.28851       -4.11146       21.60720
C        -21.35960       -3.93902       20.55512
O        -22.42870       -3.46312       20.90593
C        -19.92849       -2.75793       22.30995
C        -19.35453       -1.69245       21.33581
C        -18.97936       -2.97901       23.50241
C        -18.02133       -2.05771       20.67593
H        -20.56980       -6.07547       22.07405
H        -19.35936       -4.48126       21.12356
H        -20.85010       -2.30539       22.72752
H        -19.19927       -0.74669       21.90022
H        -20.09712       -1.48207       20.53738
H        -18.75421       -2.01056       23.99897
H        -19.45670       -3.63371       24.26200
H        -18.03008       -3.45588       23.18523
H        -18.11927       -2.95987       20.04053
H        -17.69496       -1.21798       20.02700
H        -17.22999       -2.22188       21.43582
N        -21.17707       -4.34006       19.25898
C        -22.24057       -4.15119       18.27627
C        -22.12441       -4.96888       17.01809
O        -21.12259       -5.61299       16.75024
C        -22.29227       -2.67592       17.82964
O        -22.60350       -1.85801       18.89681
H        -20.30424       -4.81994       18.99592
H        -23.19598       -4.48593       18.73664
H        -23.02966       -2.47582       17.02084
H        -21.30188       -2.37513       17.42399
H        -23.54055       -2.07307       19.13370
N        -23.19932       -4.91757       16.17729
C        -23.27978       -5.52269       14.85801
C        -24.59521       -5.10474       14.16152
O        -25.46491       -4.54092       14.80991
C        -23.20483       -7.05569       14.98947
H        -23.99962       -4.36385       16.50960
H        -22.42312       -5.12820       14.27289
H        -23.21692       -7.56061       14.00971
H        -22.27034       -7.37615       15.49048
H        -24.06483       -7.42803       15.58711
N        -24.86585       -5.35308       12.84942
C        -23.94801       -5.94876       11.89744
C        -24.35361       -7.39315       11.67162
O        -25.43405       -7.77472       12.10397
C        -23.95295       -5.08693       10.62423
H        -25.81049       -5.11210       12.50555
H        -22.92389       -5.96408       12.31588
H        -23.27686       -5.44868        9.83234
H        -24.97618       -5.04625       10.19500
H        -23.63849       -4.05239       10.88232
N        -23.50899       -8.32438       11.15268
C        -22.17874       -8.07052       10.61581
C        -21.10888       -8.48247       11.60871
O        -20.18572       -7.70483       11.81374
C        -22.04190       -8.77189        9.25358
C        -23.10606       -8.25852        8.26326
C        -22.98830       -8.92733        6.92707
O        -21.97014       -8.80642        6.26513
O        -24.01790       -9.64730        6.44136
H        -23.82976       -9.30578       11.16391
H        -21.99991       -6.99883       10.43240
H        -22.15702       -9.87032        9.38476
H        -21.02918       -8.56786        8.84142
H        -22.99697       -7.16183        8.12257
H        -24.12258       -8.45742        8.66805
N        -21.19181       -9.64357       12.31686
C        -20.21722      -10.02464       13.32235
H        -19.37036       -9.30837       13.39112
H        -20.71031      -10.06582       14.31693
H        -19.80650      -11.02510       13.07901
H        -21.99713      -10.27006       12.17849
Ca       -24.49690       -3.25119       23.15574
O        -24.92928       -5.84671       21.55522
H        -24.22984       -6.25064       20.98255
H        -25.33733       -6.61277       22.03139
O        -26.80318       -5.22973       24.00878
H        -26.23828       -5.85220       24.53174
H        -27.37480       -4.78606       24.68427
O        -25.58777       -3.69978       19.59242
H        -25.65210       -3.72204       18.60568
H        -25.58688       -2.73548       19.81576

Ca 1.0



