%chk=apoCaM-CA-Ng.loop4.water5.frame871.chk
%nprocshared=20
%mem=10GB
%nosave
#b3lyp/svp scf=(tight,noincore,xqc) Test 
#IOP(5/87=12) Density=Current Pop=(MK,readradii) iop(6/33=2) iop(6/42=6)

apoCaM-CA-Ng.loop4.water5.frame871 

   -3  1 
C         37.74241       42.28614        9.24327
C         36.91332       43.41537        8.70874
O         37.46547       44.44698        8.35470
H         38.81878       42.55800        9.25476
H         37.42057       42.03983       10.27655
H         37.60979       41.39273        8.59676
N         35.56143       43.27069        8.60437
C         34.65950       44.27886        8.05675
C         35.04665       44.56663        6.61410
O         35.30625       45.70704        6.25284
C         34.62689       45.53046        8.96999
C         33.57369       46.54540        8.60048
O         32.81873       46.36744        7.65697
O         33.45398       47.66502        9.33856
H         35.14352       42.37541        8.90254
H         33.63495       43.84284        8.05457
H         35.61697       46.03207        8.96652
H         34.41083       45.20016       10.00897
N         35.15787       43.52639        5.74254
C         35.61681       43.69042        4.36371
C         34.58713       44.44936        3.53072
O         33.43466       44.48807        3.94054
C         35.93127       42.30133        3.71236
C         34.66262       41.39848        3.60763
C         37.07488       41.60817        4.48021
C         34.90154       40.06268        2.90224
H         34.97317       42.58415        6.11310
H         36.55598       44.28070        4.41536
H         36.30517       42.48218        2.68597
H         33.88391       41.93370        3.02405
H         34.24199       41.17623        4.60963
H         37.39543       40.67939        3.96791
H         37.96146       42.27565        4.52223
H         36.77806       41.34957        5.51768
H         35.29381       40.22977        1.87766
H         35.60502       39.42432        3.47404
H         33.93983       39.51054        2.82923
N         34.86384       45.05124        2.33345
C         36.18055       45.24248        1.72381
C         36.45050       46.73370        1.47793
O         37.41120       47.04910        0.78979
C         36.26530       44.45192        0.39659
C         35.26267       44.87694       -0.64245
O         34.36615       43.98859       -1.11034
O         35.27404       46.01249       -1.09038
H         34.06291       45.45371        1.81976
H         36.99631       44.85202        2.36349
H         36.11763       43.37382        0.61089
H         37.28653       44.56392       -0.03075
N         35.64209       47.70467        2.00067
C         35.73935       49.12353        1.69207
C         37.11583       49.70884        1.88760
O         37.55695       50.43710        1.00886
H         34.88396       47.44340        2.64643
H         35.01634       49.67277        2.33294
H         35.43173       49.29106        0.63554
N         37.86757       49.43017        2.99062
C         39.20902       49.98375        3.17368
C         40.09671       49.67097        1.97756
O         40.62892       50.59720        1.38048
C         39.86304       49.53039        4.50064
C         40.16864       48.05749        4.59910
O         39.17903       47.14539        4.56340
O         41.32277       47.68318        4.73696
H         37.47661       48.79620        3.70302
H         39.11066       51.09084        3.25056
H         39.20396       49.81455        5.34835
H         40.81531       50.09657        4.61253
N         40.24344       48.39218        1.52843
C         41.00601       48.05644        0.33995
C         42.50474       48.18109        0.50911
O         43.19499       47.94481       -0.47088
H         39.72980       47.63240        1.99554
H         40.65931       48.69398       -0.50388
H         40.80204       46.99885        0.06648
N         43.09183       48.50284        1.70408
C         44.53593       48.62013        1.90098
C         45.28607       47.30680        1.71948
O         46.50842       47.35066        1.76921
C         45.12839       49.76192        1.02422
C         44.56955       51.14499        1.41554
C         45.01317       51.61918        2.78707
N         44.53710       52.78188        3.28488
O         45.81055       50.97088        3.45001
H         42.50290       48.68129        2.52762
H         44.72275       48.88491        2.96029
H         44.91697       49.57226       -0.04738
H         46.23517       49.80527        1.12346
H         43.46045       51.11285        1.36954
H         44.92008       51.89830        0.67749
H         43.86433       53.34787        2.74869
H         44.83656       53.11096        4.21517
N         44.65423       46.09845        1.58929
C         45.39220       44.84140        1.45472
C         45.19840       43.90162        2.64315
O         45.90932       42.90700        2.68596
C         45.04173       44.12626        0.11759
C         43.57318       43.66777        0.05268
C         45.36464       45.02161       -1.08714
H         43.62667       46.05887        1.60457
H         46.48391       45.05162        1.43269
H         45.67963       43.21799        0.03495
H         43.38813       43.12168       -0.89687
H         43.34209       42.97466        0.88874
H         42.87379       44.52800        0.09603
H         45.17001       44.47574       -2.03490
H         44.74056       45.93826       -1.07963
H         46.43445       45.31865       -1.07062
N         44.25650       44.10705        3.61667
C         44.05185       43.16812        4.72221
C         43.98601       43.89043        6.06404
O         43.74459       45.08920        6.09202
C         42.72854       42.41478        4.46119
C         42.45162       41.31132        5.45174
N         41.33898       41.33449        6.22267
O         43.23489       40.37827        5.54799
H         43.61059       44.90484        3.53955
H         44.88209       42.42910        4.75286
H         42.77228       41.95038        3.45195
H         41.89279       43.14956        4.45661
H         40.66276       42.10912        6.15575
H         41.15166       40.57331        6.89207
N         44.14735       43.19738        7.23139
C         43.86470       43.78047        8.54222
C         44.34703       42.88274        9.67086
O         44.09533       41.68660        9.62620
C         42.33065       43.94331        8.69145
C         41.94229       44.47721       10.05215
C         41.20171       43.67922       10.94243
C         42.33185       45.76582       10.44924
C         40.86403       44.16096       12.20971
C         41.99030       46.24695       11.71670
C         41.25902       45.44745       12.60175
O         40.94520       45.92343       13.82343
H         44.42880       42.20692        7.17772
H         44.36947       44.76640        8.63851
H         41.86582       42.94298        8.53968
H         41.92343       44.61733        7.90948
H         40.89565       42.67871       10.66364
H         42.90222       46.39555        9.77856
H         40.30081       43.53177       12.88731
H         42.29828       47.24162       12.01227
H         40.44686       45.39979       14.46711
N         44.90929       43.43425       10.79165
C         45.20748       42.65339       11.98488
C         44.23925       43.03717       13.09639
O         44.35839       44.14968       13.59275
C         46.64330       42.90176       12.49718
C         47.73974       42.46129       11.52790
C         49.09257       42.71463       12.13685
O         49.92858       41.68691       12.37823
O         49.43656       43.85067       12.42504
H         45.03103       44.45741       10.83953
H         45.12146       41.58833       11.75249
H         46.77818       42.33375       13.44630
H         46.77078       43.98538       12.72189
H         47.65901       43.02065       10.57217
H         47.62718       41.37506       11.32231
N         43.25176       42.22191       13.57995
C         42.81023       40.94667       13.01352
C         43.89494       39.88729       12.98769
O         44.48897       39.59959       14.01735
C         41.59830       40.41096       13.80868
C         40.96196       39.19111       13.12412
C         39.80437       38.67103       13.91906
O         38.74380       39.46179       14.17264
O         39.81580       37.52210       14.33013
H         42.70651       42.59426       14.37484
H         42.45548       41.14735       11.97909
H         40.82557       41.20856       13.87412
H         41.91681       40.14991       14.84329
H         41.71243       38.37923       13.01163
H         40.60174       39.48039       12.11320
N         44.16678       39.24119       11.81660
C         45.16927       38.20907       11.67221
H         45.72102       38.02105       12.61557
H         44.67730       37.26649       11.35135
H         45.89497       38.51612       10.88995
H         43.62221       39.47906       10.97400
Ca        37.45004       37.25635       15.98022
O         37.50405       38.00788       19.02121
H         37.37666       38.96186       19.25314
H         37.48754       37.53603       19.89129
O         35.18091       36.08535       17.39590
H         35.38590       35.12008       17.47647
H         35.03636       36.38969       18.32669
O         36.18460       39.98188       16.41313
H         36.20761       40.25196       17.36520
H         35.27402       39.61608       16.28084
O         40.34669       37.78552       17.37748
H         40.73347       37.55999       18.26051
H         40.00541       38.70911       17.48312
O         38.71311       34.64260       16.95322
H         38.81018       34.70603       17.93655
H         38.15856       33.83510       16.80895

Ca 1.0



