%chk=apoCaM-CA-Ng.loop1.water5.frame662.chk
%nprocshared=20
%mem=10GB
%nosave
#b3lyp/svp scf=(tight,noincore,xqc) Test 
#IOP(5/87=12) Density=Current Pop=(MK,readradii) iop(6/33=2) iop(6/42=6)

apoCaM-CA-Ng.loop1.water5.frame662 

   0  1 
C         12.74078       36.05673       10.95378
C         12.60416       34.58504       11.17301
O         11.62911       33.99983       10.72077
H         13.67795       36.26722       10.40126
H         11.87367       36.44639       10.37991
H         12.76986       36.56698       11.94080
N         13.54246       33.91945       11.90293
C         13.41561       32.50376       12.24638
C         12.10535       32.25591       13.00033
O         11.44560       33.22066       13.36709
C         14.66638       32.03082       13.02045
C         14.90812       32.79114       14.29036
O         14.04890       33.73769       14.70389
O         15.83024       32.46347       15.02061
H         14.35677       34.45485       12.24316
H         13.36422       31.92497       11.29927
H         15.56432       32.14608       12.37717
H         14.55867       30.95454       13.27804
N         11.61656       30.99380       13.18870
C         10.24931       30.76628       13.65978
C         10.23536       30.09341       15.02338
O          9.60599       29.05752       15.19331
C          9.45188       29.98734       12.58352
C          9.41993       30.72022       11.22516
C          8.64651       29.90529       10.17384
C          8.61175       30.56861        8.78378
N          7.84947       31.81784        8.77799
H         12.18312       30.18015       12.90421
H          9.72935       31.73136       13.80149
H          8.40487       29.84853       12.93501
H          9.91327       28.98524       12.44346
H         10.45684       30.87138       10.85501
H          8.95040       31.71418       11.36444
H          7.60486       29.72435       10.51769
H          9.15060       28.92055       10.06103
H          8.12709       29.85919        8.07621
H          9.64691       30.75461        8.42056
H          8.31646       32.54265        9.36676
H          7.79652       32.17829        7.79748
H          6.87711       31.64544        9.12311
N         10.91707       30.66301       16.05716
C         10.94996       30.13227       17.41937
C         10.69717       31.25311       18.43478
O         11.41041       32.24423       18.39896
C         12.29553       29.40462       17.67110
C         13.50296       30.19953       17.27491
O         14.20689       29.83172       16.34557
O         13.78393       31.33831       17.92507
H         11.48311       31.50229       15.85466
H         10.18496       29.34298       17.54630
H         12.28742       28.47510       17.06226
H         12.37778       29.11213       18.74011
N          9.73322       31.19964       19.40361
C          8.78194       30.11474       19.58896
C          7.68052       30.10569       18.54668
O          6.84479       29.21188       18.59621
H          9.68884       31.97690       20.08144
H          8.27712       30.24713       20.56933
H          9.32623       29.14741       19.62730
N          7.59951       31.06341       17.58239
C          6.56038       31.10072       16.55725
C          7.00808       31.93743       15.36749
O          8.08369       32.51872       15.41477
C          5.22185       31.60343       17.14712
C          5.31975       33.01106       17.67726
O          4.62920       33.89628       17.19770
O          6.15572       33.29994       18.69322
H          8.31915       31.79695       17.56925
H          6.42610       30.07042       16.15755
H          4.89551       30.93720       17.97308
H          4.43667       31.56171       16.36160
N          6.25572       32.01783       14.23887
C          6.72768       32.69272       13.04129
C          5.89370       33.88515       12.67946
O          4.93987       34.21081       13.37475
H          5.33709       31.54832       14.20233
H          6.71511       31.96583       12.20180
H          7.77119       33.05627       13.15553
N          6.22193       34.58819       11.56213
C          5.48515       35.75019       11.08154
C          6.39852       36.96231       10.95975
O          7.58636       36.85557       11.23912
C          4.77963       35.39847        9.75077
C          5.74412       34.99045        8.63129
O          3.88232       34.34319        9.98977
H          7.03221       34.26364       11.01048
H          4.68856       36.02712       11.80743
H          4.21618       36.29845        9.41449
H          3.08670       34.49343        9.41612
H          6.47995       35.79299        8.42579
H          6.29016       34.06572        8.89657
H          5.16962       34.78861        7.70358
N          5.88399       38.16835       10.57704
C          6.66649       39.40199       10.49663
C          6.20849       40.38627       11.57592
O          6.94587       41.31469       11.87476
C          6.55928       40.01497        9.06423
C          6.90978       38.94517        7.99603
C          7.44877       41.26634        8.90944
C          6.77007       39.43154        6.55274
H          4.88105       38.21864       10.34744
H          7.73345       39.16800       10.71090
H          5.50140       40.32164        8.90071
H          6.20383       38.09599        8.10288
H          7.94236       38.56586        8.15422
H          7.16779       42.05923        9.62759
H          8.51884       41.00511        9.05117
H          7.31523       41.73070        7.91308
H          7.51587       40.21673        6.31740
H          6.95388       38.58270        5.86128
H          5.74566       39.82168        6.37323
N          5.02647       40.21785       12.23882
C          4.57055       41.06058       13.33032
C          3.21073       41.65043       13.00102
O          2.30630       40.91722       12.62911
C          4.55180       40.24524       14.64684
C          3.64399       39.00820       14.61882
O          5.85731       39.82058       14.94454
H          4.40383       39.44331       11.98871
H          5.28159       41.89730       13.51052
H          4.18431       40.90207       15.46967
H          6.36276       40.62289       15.24041
H          3.96921       38.28598       13.84126
H          3.69832       38.49152       15.59878
H          2.58593       39.28572       14.44381
N          3.00775       42.98995       13.12730
C          1.73988       43.66484       12.85959
C          1.97720       45.16017       12.99680
O          1.84418       45.86804       12.00810
C          0.59095       43.13255       13.77423
C         -0.74411       43.83955       13.52158
O          0.93609       43.24849       15.13095
H          3.81048       43.56409       13.43034
H          1.44926       43.46384       11.80304
H          0.42627       42.06045       13.52608
H          0.53384       42.47520       15.60743
H         -1.53376       43.38046       14.15569
H         -0.67724       44.91845       13.77353
H         -1.04452       43.72817       12.45819
N          2.37626       45.69910       14.18586
C          2.73655       47.09812       14.35146
C          4.08538       47.19746       15.04538
O          4.26088       46.58573       16.09157
C          1.64891       47.82838       15.15417
C          1.89951       49.34577       15.12559
C          0.76836       50.12772       15.79229
C          1.01570       51.63669       15.65592
N         -0.06130       52.40321       16.27794
H          2.43924       45.09323       15.01601
H          2.78082       47.60239       13.36110
H          1.59300       47.44584       16.19731
H          0.67181       47.63611       14.65789
H          1.96378       49.67156       14.06286
H          2.86260       49.58463       15.62724
H          0.70607       49.84731       16.86591
H         -0.19490       49.87539       15.29644
H          1.07691       51.90591       14.57674
H          1.98333       51.90250       16.13683
H         -0.11531       52.18048       17.29812
H          0.13595       53.42345       16.16185
H         -0.97320       52.18003       15.81670
N          5.06485       48.00863       14.55642
C          6.34387       48.18033       15.23653
C          7.19835       46.91895       15.14087
O          7.52788       46.38608       16.19089
C          7.08100       49.44583       14.73748
C          8.35417       49.73729       15.54838
C          9.00465       51.00815       15.08259
O         10.25791       50.98429       14.59074
O          8.40510       52.06943       15.15480
H          4.85689       48.58162       13.72471
H          6.12726       48.38937       16.31072
H          6.38620       50.30672       14.85841
H          7.34851       49.37837       13.66649
H          9.07274       48.89761       15.43178
H          8.10417       49.84028       16.62696
N          7.63136       46.35906       13.96993
C          7.31805       46.81177       12.62881
H          6.62056       47.66086       12.59499
H          8.25540       47.10237       12.10944
H          6.84163       45.98161       12.06762
H          8.23714       45.52569       14.03086
Ca        13.63744       33.26478       16.79991
O         12.48950       36.54035       15.12210
H         13.15708       37.13466       14.69706
H         11.71874       37.13101       15.31607
O         14.04856       33.58934       19.65242
H         13.88855       32.65080       19.92015
H         13.18484       34.03727       19.82784
O         10.28740       34.89429       16.13703
H         10.04898       34.01892       15.74548
H          9.46216       35.43714       16.06967
O         14.83864       36.04115       17.08852
H         15.28207       35.43782       17.73634
H         14.56923       36.82784       17.62557
O         11.71020       35.88274       18.43041
H         10.82036       36.14369       18.77749
H         12.35314       36.27613       19.07174

Ca 1.0



