%chk=apoCaM-CA-Ng.loop1.water5.frame5.chk
%nprocshared=20
%mem=10GB
%nosave
#b3lyp/svp scf=(tight,noincore,xqc) Test 
#IOP(5/87=12) Density=Current Pop=(MK,readradii) iop(6/33=2) iop(6/42=6)

apoCaM-CA-Ng.loop1.water5.frame5 

   0  1 
C         37.84944       37.67052       75.73434
C         36.82894       38.05720       74.70375
O         36.57821       39.23912       74.51494
H         38.29734       38.56931       76.20833
H         37.36513       37.05333       76.52008
H         38.65933       37.07752       75.25817
N         36.20873       37.08954       73.97487
C         35.22999       37.37826       72.92932
C         33.87345       37.85084       73.46447
O         32.99682       38.08670       72.65101
C         35.03530       36.14746       72.00676
C         34.36399       34.96838       72.66272
O         33.29520       34.56366       72.23324
O         34.94540       34.32913       73.69486
H         36.51207       36.11755       74.13126
H         35.65625       38.16972       72.27300
H         36.02171       35.82485       71.60859
H         34.41825       36.46324       71.13596
N         33.60713       37.98216       74.79740
C         32.28232       38.29904       75.33533
C         32.32143       39.61018       76.10438
O         33.27584       39.79624       76.84598
C         31.84740       37.16083       76.27633
C         31.72190       35.82715       75.52631
C         31.17916       34.73129       76.45198
C         30.99110       33.38007       75.74223
N         32.25992       32.79796       75.30330
H         34.35260       37.80436       75.48345
H         31.52250       38.35033       74.54131
H         30.86096       37.41029       76.71306
H         32.57266       37.05455       77.11319
H         32.72030       35.54299       75.13675
H         31.02195       35.95094       74.67032
H         30.18363       35.05618       76.82699
H         31.85474       34.60077       77.32505
H         30.30877       33.49960       74.87113
H         30.51055       32.68016       76.46021
H         32.07926       31.84988       74.90199
H         32.69324       33.38351       74.55878
H         32.91534       32.70409       76.11293
N         31.33166       40.56199       76.08198
C         30.04276       40.53686       75.38368
C         29.21208       39.30506       75.72379
O         28.86711       38.56269       74.81434
C         30.18440       40.74529       73.85777
C         30.79864       42.06849       73.52286
O         31.80723       42.12136       72.83920
O         30.20927       43.20642       73.93337
H         31.48333       41.38336       76.68714
H         29.44171       41.40460       75.73506
H         29.16649       40.74146       73.41580
H         30.76000       39.93759       73.37142
N         28.80661       38.99280       76.98892
C         29.10883       39.72520       78.20752
C         27.82856       40.11474       78.91568
O         26.97244       39.25272       79.06066
H         28.24357       38.13419       77.10273
H         29.76047       40.59306       78.03821
H         29.66022       39.03070       78.87618
N         27.60754       41.34312       79.46736
C         28.57170       42.43869       79.50569
C         28.72599       43.09315       78.14840
O         29.85006       43.19282       77.67997
C         28.15852       43.48278       80.56384
C         28.10837       42.86347       81.93822
O         29.10818       42.35526       82.42246
O         26.95859       42.86217       82.63868
H         26.71890       41.46829       79.97883
H         29.55929       42.05084       79.84575
H         27.16739       43.91752       80.31264
H         28.90747       44.30484       80.58707
N         27.64801       43.56027       77.45464
C         27.75795       44.20891       76.15327
C         27.11876       43.38270       75.05905
O         26.60833       42.30367       75.33557
H         26.70473       43.43889       77.85557
H         28.81945       44.36925       75.87191
H         27.27310       45.20778       76.20652
N         27.13171       43.83374       73.77043
C         26.56283       43.09748       72.64331
C         27.65144       42.78567       71.62259
O         28.33214       43.69497       71.16582
C         25.39445       43.88929       72.02171
C         24.69932       43.07452       70.92138
O         25.85077       45.11219       71.50396
H         27.57002       44.74958       73.57793
H         26.12579       42.13912       73.00223
H         24.65650       44.07716       72.83727
H         25.05227       45.69325       71.40020
H         23.82816       43.63608       70.52515
H         25.39593       42.86271       70.08265
H         24.33280       42.10942       71.33416
N         27.87066       41.49834       71.23585
C         28.97446       41.07452       70.37602
C         28.99445       41.73778       69.00138
O         28.15489       41.43433       68.16699
C         29.01328       39.50820       70.25883
C         30.19651       38.97845       69.40917
C         27.70910       38.89199       69.69322
C         31.56175       39.43548       69.90636
H         27.26415       40.77707       71.65082
H         29.89801       41.38625       70.90439
H         29.12846       39.11386       71.29347
H         30.08504       39.28458       68.34613
H         30.17992       37.86639       69.44609
H         27.53689       39.17190       68.63575
H         27.76959       37.78366       69.73090
H         26.81279       39.17837       70.27649
H         31.68484       40.53065       69.79843
H         31.67447       39.16017       70.96835
H         32.35706       38.94077       69.31025
N         29.97933       42.63617       68.69285
C         30.21171       43.13734       67.33691
C         31.69594       43.12757       66.93098
O         31.95241       43.38045       65.76146
C         29.60365       44.54880       67.14412
C         30.22575       45.61903       68.05040
O         28.20755       44.51309       67.30994
H         30.57382       42.97709       69.45971
H         29.69177       42.46806       66.61501
H         29.79257       44.85983       66.09250
H         28.01548       44.34983       68.26959
H         30.04790       45.37897       69.11786
H         31.31765       45.69611       67.87519
H         29.76732       46.60517       67.82598
N         32.72403       42.89383       67.81262
C         34.15133       42.92661       67.46441
C         34.56540       44.31929       66.96599
O         33.71843       45.19663       66.87275
C         34.50290       41.78201       66.46779
C         34.00350       40.42383       66.97890
O         35.89519       41.69835       66.30608
H         32.52310       42.69309       68.79868
H         34.72958       42.73245       68.39658
H         34.02377       41.99509       65.48615
H         36.06721       41.22262       65.45222
H         34.28799       39.62510       66.26153
H         34.45417       40.19079       67.96750
H         32.89775       40.41744       67.07291
N         35.85764       44.60349       66.62453
C         36.25381       45.90892       66.10643
C         36.13328       46.96841       67.17951
O         35.41610       47.93797       66.97336
C         37.69450       45.90206       65.55049
C         37.84400       44.95720       64.34163
C         39.17907       45.14147       63.60203
C         40.41253       44.77419       64.43945
N         41.63824       45.00561       63.67444
H         36.57755       43.87598       66.70793
H         35.59157       46.17583       65.25083
H         38.41993       45.63439       66.34713
H         37.91865       46.93553       65.20245
H         37.04308       45.19768       63.60854
H         37.71900       43.89755       64.65159
H         39.25832       46.19910       63.26777
H         39.16517       44.49617       62.69630
H         40.35355       43.70254       64.73265
H         40.45230       45.39129       65.36159
H         41.63511       44.43302       62.79922
H         41.71835       46.01986       63.42937
H         42.46385       44.73479       64.25563
N         36.81827       46.84658       68.35215
C         36.79012       47.85263       69.40442
C         38.20203       48.31209       69.69498
O         39.03419       47.49328       70.06457
C         36.14540       47.28925       70.67971
C         34.68229       46.89152       70.44188
C         34.03345       46.48814       71.72838
O         33.93822       47.29167       72.64271
O         33.53796       45.24945       71.88483
H         37.38617       45.99913       68.50913
H         36.18368       48.73303       69.09642
H         36.17898       48.08506       71.45753
H         36.71520       46.40861       71.05277
H         34.63397       46.05175       69.71494
H         34.11519       47.75284       70.02716
N         38.54516       49.62120       69.55498
C         39.88292       50.09695       69.83033
H         40.61017       49.59240       69.15936
H         39.93789       51.19256       69.65735
H         40.14903       49.89007       70.88898
H         37.83767       50.30580       69.24805
Ca        32.57324       44.81479       73.86857
O         34.49212       42.51849       74.26362
H         34.36871       41.85297       73.54116
H         34.75725       41.98263       75.05227
O         32.66929       44.19064       76.89356
H         32.68220       43.42014       77.51442
H         31.87067       44.04257       76.32809
O         34.82520       45.96754       75.61149
H         34.42998       46.31409       76.45056
H         35.09279       46.77847       75.11114
O         30.59377       46.15192       71.71134
H         30.61361       45.16405       71.64586
H         29.65850       46.36625       71.95454
O         30.44871       46.81176       74.97436
H         30.41005       46.58746       75.93799
H         29.55075       46.57869       74.62842

Ca 1.0



