%chk=apoCaM-CA-Ng.loop4.water4.frame409.chk
%nprocshared=20
%mem=10GB
%nosave
#b3lyp/svp scf=(tight,noincore,xqc) Test 
#IOP(5/87=12) Density=Current Pop=(MK,readradii) iop(6/33=2) iop(6/42=6)

apoCaM-CA-Ng.loop4.water4.frame409 

   -3  1 
C        108.76721       78.86587       89.05410
C        110.17827       78.44271       89.31285
O        110.81072       77.94234       88.40299
H        108.08007       78.32931       89.73830
H        108.68025       79.96067       89.21562
H        108.48158       78.64190       88.00268
N        110.74760       78.64426       90.53306
C        112.13982       78.35167       90.85025
C        113.08557       79.18807       90.02592
O        113.79032       78.64353       89.19763
C        112.49491       76.84021       90.95620
C        112.23588       75.84163       89.84121
O        112.87671       75.83674       88.64861
O        111.53052       74.87962       90.10181
H        110.17571       79.08435       91.26985
H        112.32995       78.69933       91.89238
H        111.92406       76.47015       91.83807
H        113.57055       76.76253       91.23256
N        113.16399       80.53651       90.26562
C        114.13563       81.48595       89.70884
C        115.50976       81.29535       90.35276
O        115.97727       82.21063       91.01679
C        114.15131       81.50532       88.15588
C        115.13279       82.56142       87.57265
C        112.72790       81.73164       87.62000
C        114.81865       84.02075       87.92615
H        112.49356       80.93165       90.94351
H        113.79745       82.49527       90.03339
H        114.50284       80.52217       87.77957
H        115.12848       82.47204       86.46443
H        116.16454       82.33432       87.91596
H        112.05753       80.89884       87.91878
H        112.29363       82.67679       88.00545
H        112.74356       81.77870       86.51855
H        113.81803       84.31840       87.55250
H        114.87059       84.19295       89.01995
H        115.56805       84.68334       87.44443
N        116.18644       80.12117       90.25553
C        117.42002       79.82924       90.95789
C        118.61912       80.58725       90.39737
O        119.29515       81.21271       91.20134
C        117.66933       78.30396       90.97483
C        118.77670       77.92622       91.92079
O        118.67533       78.22670       93.23121
O        119.75621       77.32307       91.51514
H        115.78235       79.35494       89.72453
H        117.26664       80.10293       92.02841
H        117.87882       77.93081       89.95099
H        116.75024       77.79589       91.34442
N        119.02247       80.57918       89.08523
C        118.31163       80.03302       87.93395
C        119.04154       78.86340       87.31338
O        119.85012       78.26064       88.00561
H        119.90996       81.05756       88.86478
H        118.21163       80.85433       87.19456
H        117.30234       79.69610       88.18227
N        118.83201       78.42946       86.02879
C        118.01672       79.08957       84.99294
C        116.54015       79.21968       85.37636
O        116.16268       78.63879       86.38339
C        118.20358       78.33557       83.64696
C        117.60094       76.94984       83.63253
O        116.73711       76.67093       82.81650
O        118.02628       76.00125       84.48903
H        119.37966       77.60132       85.74929
H        118.43698       80.10662       84.87067
H        119.28864       78.25529       83.42450
H        117.77838       78.91506       82.81503
N        115.60281       79.94038       84.67800
C        115.72551       80.67127       83.42083
C        116.59416       81.90015       83.47702
O        117.15997       82.20623       84.51700
H        114.66105       79.95499       85.07763
H        114.71508       81.04310       83.14266
H        116.02357       79.99880       82.60101
N        116.70051       82.68450       82.36018
C        117.48286       83.91591       82.31361
C        116.61360       85.16214       82.13571
O        117.13667       86.24494       82.35961
C        118.65933       83.78134       81.31876
C        118.30297       83.47055       79.85293
C        117.61844       84.60419       79.15001
N        118.22894       85.80378       79.02048
O        116.51526       84.42950       78.66208
H        116.19389       82.39228       81.51087
H        117.95890       84.06892       83.30714
H        119.27878       82.92994       81.67662
H        119.29850       84.68848       81.37013
H        117.68711       82.54766       79.79714
H        119.24493       83.26805       79.29982
H        119.17063       85.96469       79.40398
H        117.76578       86.57363       78.52338
N        115.27465       85.09718       81.84783
C        114.36367       86.23245       82.04571
C        113.68738       86.75056       80.78248
O        112.92999       87.70593       80.89949
C        113.26822       85.83065       83.08649
C        113.89606       85.37993       84.41373
C        112.31412       84.73136       82.56781
H        114.85998       84.19362       81.58966
H        114.92422       87.09798       82.46159
H        112.64729       86.72939       83.29914
H        113.10014       85.15428       85.15508
H        114.50843       84.46259       84.27555
H        114.54041       86.18408       84.82580
H        112.84052       83.77425       82.37398
H        111.52344       84.53473       83.32087
H        111.80661       85.05177       81.63381
N        113.85979       86.17206       79.56397
C        113.10016       86.56753       78.38210
C        112.19543       85.43225       77.91991
O        111.49002       85.63162       76.94199
C        114.04803       86.97687       77.23221
C        114.90777       88.17143       77.56209
N        114.35577       89.36940       77.86420
O        116.12238       88.06424       77.52611
H        114.50284       85.37812       79.47650
H        112.43032       87.42681       78.60323
H        113.44898       87.24277       76.33368
H        114.69439       86.11089       76.96683
H        113.33405       89.49438       77.88189
H        114.95694       90.18089       78.07265
N        112.14978       84.22033       78.56264
C        111.34634       83.09962       78.07534
C        111.34555       81.89096       79.02213
O        112.10259       81.83521       79.97976
C        111.83451       82.67551       76.65654
C        113.35132       82.61635       76.52788
C        114.00110       83.46466       75.60880
C        114.13411       81.74898       77.31102
C        115.39267       83.44677       75.47965
C        115.52683       81.73404       77.18121
C        116.16097       82.58074       76.26737
O        117.50517       82.55850       76.16068
H        112.70952       84.07558       79.41042
H        110.28392       83.42602       78.02334
H        111.45776       83.42258       75.92746
H        111.37878       81.71198       76.34781
H        113.43306       84.14869       74.99035
H        113.68212       81.08721       78.03002
H        115.87194       84.10975       74.76975
H        116.11529       81.06587       77.79724
H        117.98290       83.13628       75.54827
N        110.46995       80.87136       78.76385
C        110.35932       79.58442       79.45714
C        109.90168       79.60721       80.91047
O        109.64622       78.51823       81.40882
C        111.66630       78.77275       79.37382
C        112.09581       78.47059       77.93756
C        113.34699       77.64036       77.95089
O        113.34604       76.42836       78.54038
O        114.37059       78.05982       77.43610
H        109.83970       80.99067       77.95577
H        109.56843       79.01014       78.92078
H        111.50919       77.79645       79.88507
H        112.47725       79.31083       79.91047
H        112.27053       79.41575       77.38525
H        111.29491       77.90635       77.41382
N        109.76926       80.73422       81.66664
C        109.35813       80.67465       83.07132
C        108.03626       81.38413       83.30841
O        107.51907       81.26856       84.41168
C        110.44669       81.29873       83.96261
C        111.82575       80.62651       83.86671
C        111.87654       79.28796       84.55294
O        111.28123       78.32316       84.10319
O        112.58869       79.17698       85.69232
H        109.98027       81.65484       81.26108
H        109.19528       79.62369       83.39167
H        110.12937       81.29547       85.03057
H        110.56131       82.35732       83.65003
H        112.53340       81.29495       84.39410
H        112.18363       80.55429       82.81816
N        107.42772       82.13520       82.34443
C        106.15779       82.80147       82.54144
H        105.70846       82.57852       83.53169
H        106.30237       83.89853       82.45716
H        105.44985       82.46782       81.75487
H        107.87133       82.26958       81.42661
Ca       112.92344       77.35237       86.96592
O        114.10732       76.10689       84.34852
H        114.91898       76.26296       84.89380
H        114.10552       75.13107       84.18096
O        116.00212       76.17756       88.39813
H        116.41159       75.30722       88.63284
H        115.70244       76.55097       89.26460
O        113.71315       73.85720       86.59567
H        114.27104       73.71645       87.40141
H        112.91911       73.28328       86.73839
O        111.03309       75.44324       85.51345
H        110.67403       76.33311       85.75697
H        110.74693       75.30928       84.57535

Ca 1.0



