%chk=apoCaM-CA-Ng.loop2.water4.frame222.chk
%nprocshared=20
%mem=10GB
%nosave
#b3lyp/svp scf=(tight,noincore,xqc) Test 
#IOP(5/87=12) Density=Current Pop=(MK,readradii) iop(6/33=2) iop(6/42=6)

apoCaM-CA-Ng.loop2.water4.frame222 

   -2  1 
C          2.73878       29.30912       77.72394
C          1.89513       28.07397       77.59897
O          2.44334       26.98314       77.53146
H          3.81976       29.05403       77.69750
H          2.52402       30.00980       76.89240
H          2.51356       29.81017       78.68861
N          0.53787       28.17851       77.54209
C         -0.35813       27.03149       77.45748
C         -0.97884       26.97579       76.07806
O         -1.57954       27.95167       75.64910
C         -1.43486       27.13408       78.55275
C         -2.37553       25.95977       78.52109
O         -3.69116       26.15505       78.30979
O         -1.95260       24.82624       78.68474
H          0.11849       29.12206       77.54345
H          0.20498       26.08778       77.62860
H         -2.01587       28.07317       78.41799
H         -0.94527       27.16962       79.54981
N         -0.86476       25.83920       75.33049
C         -1.35960       25.71353       73.96570
C         -0.22003       25.34173       73.03868
O          0.81286       24.90089       73.51692
C         -2.44682       24.64199       73.90244
H         -0.39063       25.02124       75.74411
H         -1.79969       26.67382       73.62766
H         -2.83661       24.54374       72.86698
H         -2.03950       23.65973       74.22748
H         -3.28737       24.91805       74.57365
N         -0.32761       25.53835       71.69487
C          0.73663       25.22644       70.74190
C          0.80069       23.72496       70.47296
O          0.39820       23.28438       69.40403
C          0.53157       26.01790       69.42752
C          0.61062       27.50323       69.65296
O         -0.33589       28.22098       69.37348
O          1.73919       28.05158       70.14133
H         -1.18451       25.99402       71.34410
H          1.72414       25.56710       71.13087
H         -0.44683       25.75363       68.97079
H          1.33894       25.75220       68.70962
N          1.38805       22.88766       71.37350
C          1.59030       21.46662       71.15315
C          3.05502       21.16232       70.88764
O          3.39593       19.99397       70.77233
H          1.80981       23.27563       72.22495
H          1.00944       21.09786       70.27934
H          1.22884       20.91960       72.05005
N          3.96182       22.16645       70.69024
C          5.33783       21.94139       70.26482
C          6.20781       21.48199       71.41975
O          6.29003       22.17997       72.42155
C          5.92645       23.23770       69.66995
C          5.07496       23.76155       68.53436
N          4.52514       24.99762       68.59821
O          4.87352       23.06044       67.55358
H          3.63905       23.14312       70.72384
H          5.34021       21.19231       69.44032
H          6.94721       23.02979       69.28285
H          6.00585       24.01072       70.46509
H          4.68164       25.60559       69.41543
H          3.93863       25.35072       67.82763
N          6.91189       20.32087       71.33389
C          7.78062       19.83249       72.39240
C          8.99777       20.70623       72.59716
O          9.75407       20.87043       71.64891
H          6.82109       19.74372       70.48361
H          8.16383       18.83085       72.09698
H          7.20018       19.70989       73.33007
N          9.28688       21.24937       73.82125
C         10.54588       21.94461       74.09543
C         10.38454       23.43025       74.39320
O         11.40843       24.09712       74.43079
C         11.35695       21.21231       75.20570
C         10.68706       21.19918       76.59157
O         11.66168       19.89981       74.80289
H          8.61858       21.11155       74.59380
H         11.18037       21.92014       73.18270
H         12.32565       21.74447       75.33114
H         10.82849       19.36219       74.85409
H         10.52411       22.22750       76.95542
H          9.71469       20.66607       76.57360
H         11.34876       20.68529       77.32171
N          9.17344       24.03424       74.60066
C          9.04826       25.48927       74.76953
C          8.03879       26.06619       73.78335
O          7.39474       25.31419       73.06555
C          8.73534       25.87339       76.25057
C          7.36749       25.33599       76.74313
C          9.89577       25.42099       77.15415
C          7.03680       25.75319       78.18114
H          8.31987       23.45977       74.64072
H         10.01206       25.98278       74.52036
H          8.70737       26.98238       76.31599
H          7.33852       24.22751       76.68490
H          6.56926       25.74385       76.08631
H          9.94148       24.31975       77.20082
H         10.86217       25.80737       76.76569
H          9.78759       25.81369       78.18440
H          7.06929       26.85874       78.28493
H          6.01941       25.39991       78.44893
H          7.74330       25.29622       78.90474
N          7.84613       27.41889       73.71767
C          6.85957       28.05596       72.85317
C          7.51451       29.14856       71.99501
O          6.99804       30.25220       71.91836
C          5.73548       28.58498       73.77557
C          4.67346       29.41336       73.06143
O          3.96943       28.68853       72.09625
O          3.74745       29.93318       73.97035
H          8.38998       28.02933       74.34404
H          6.41572       27.31294       72.15395
H          6.19942       29.24409       74.54194
H          5.26051       27.72850       74.30419
N          8.66540       28.90106       71.30942
C          9.30219       29.86162       70.39872
C          9.52640       31.23068       71.04724
O         10.07261       31.27212       72.13966
C         10.62948       29.26248       69.87285
C         11.31510       30.13299       68.84153
C         11.26970       29.77904       67.48200
C         12.00757       31.29971       69.21958
C         11.88759       30.58356       66.52035
C         12.63058       32.09687       68.25500
C         12.56727       31.74126       66.90606
H          9.10465       27.97571       71.43422
H          8.63021       29.97744       69.52403
H         10.36777       28.28880       69.40314
H         11.33757       29.04448       70.70219
H         10.74282       28.88855       67.16327
H         12.07487       31.59206       70.25904
H         11.83758       30.30910       65.47487
H         13.16240       32.99118       68.55369
H         13.04654       32.36133       66.15973
N          9.18148       32.40433       70.41230
C          9.40595       33.74240       70.95643
C          8.70526       34.01413       72.27172
O          9.17371       34.85162       73.02984
C          8.79674       34.66944       69.89298
C          9.06366       33.90389       68.62407
C          8.68991       32.48641       69.04673
H         10.50405       33.90066       71.04635
H          7.68649       34.69952       70.00377
H          9.17914       35.71261       69.91681
H          8.53337       34.27374       67.72074
H         10.16177       33.94474       68.43543
H          7.59006       32.32261       69.04832
H          9.19328       31.79518       68.34064
N          7.51875       33.40967       72.55916
C          6.72073       33.71629       73.74444
C          7.40906       33.33527       75.05233
O          6.86141       33.66324       76.09637
C          5.35754       32.99244       73.66996
C          4.51269       33.44173       72.46425
C          3.23368       32.66359       72.38635
O          2.35432       32.70047       73.40504
O          2.98309       31.99664       71.39479
H          7.14890       32.74030       71.87207
H          6.53291       34.81327       73.76160
H          4.77125       33.19671       74.59337
H          5.54959       31.90167       73.61576
H          5.06583       33.29428       71.51398
H          4.27347       34.52167       72.56104
N          8.58630       32.64517       75.09149
C          9.25641       32.28143       76.32387
H         10.27174       32.73018       76.33438
H          8.71211       32.63104       77.22610
H          9.35012       31.17683       76.37727
H          9.04132       32.34388       74.22220
Ca         1.93972       29.54408       72.66817
O         -0.87446       28.77330       72.36855
H         -0.46659       28.63104       73.25920
H         -1.75190       29.18693       72.56248
O          2.18616       27.12767       73.90200
H          1.97910       27.53108       74.78058
H          2.98978       26.57199       74.05339
O          0.62170       30.68032       75.16262
H          1.01985       31.50522       75.53863
H         -0.34712       30.76609       75.34487
O         -0.21906       31.65231       71.71600
H          0.08582       32.59377       71.73733
H         -0.30322       31.43964       70.75265

Ca 1.0



