%chk=apoCaM-CA-Ng.loop1.water1.frame888.chk
%nprocshared=20
%mem=10GB
%nosave
#b3lyp/svp scf=(tight,noincore,xqc) Test 
#IOP(5/87=12) Density=Current Pop=(MK,readradii) iop(6/33=2) iop(6/42=6)

apoCaM-CA-Ng.loop1.water1.frame888 

   0  1 
C         11.05190        2.46862       45.68727
C         11.36269        3.92588       45.50675
O         10.53310        4.66154       44.99161
H         10.04240        2.22318       45.29579
H         11.80501        1.85837       45.14468
H         11.09106        2.21192       46.76709
N         12.56635        4.40805       45.91837
C         12.96584        5.80781       45.79221
C         12.88745        6.30980       44.35620
O         13.55915        5.79091       43.48778
C         14.35430        6.07970       46.45057
C         15.39109        4.95457       46.47897
O         16.02304        4.43886       45.39767
O         15.69058        4.49497       47.57041
H         13.21267        3.73346       46.35180
H         12.23930        6.42634       46.36631
H         14.11970        6.26434       47.52444
H         14.78475        7.03412       46.07606
N         12.03732        7.32826       44.03688
C         11.92430        7.89484       42.69631
C         13.15568        8.73297       42.38480
O         13.43025        9.66457       43.12845
C         10.63636        8.74413       42.61889
C         10.29925        9.22901       41.19666
C          8.87356        9.80761       41.11202
C          8.67546       11.10698       41.90869
N          7.27711       11.53593       41.85397
H         11.42383        7.70465       44.77652
H         11.79742        7.06354       41.96657
H         10.70209        9.60031       43.32353
H          9.80219        8.08539       42.94769
H         10.32303        8.34827       40.51818
H         11.05031        9.96476       40.83539
H          8.15926        9.03641       41.47617
H          8.63486       10.01327       40.04573
H          9.32816       11.90003       41.48107
H          8.95084       10.96197       42.97382
H          7.17392       12.44255       42.36429
H          6.97011       11.66476       40.86274
H          6.67009       10.82089       42.31857
N         13.92725        8.47894       41.28764
C         15.11123        9.28123       40.94341
C         15.60284        9.01585       39.52366
O         15.14559        8.06822       38.89969
C         16.23903        9.08917       41.99759
C         16.62533        7.67485       42.30687
O         17.42079        7.47782       43.21186
O         16.06360        6.61430       41.70344
H         13.62527        7.71533       40.66461
H         14.79112       10.34565       40.92796
H         15.88981        9.52697       42.95378
H         17.17224        9.61190       41.72952
N         16.49024        9.83683       38.88286
C         17.13007       11.02986       39.42911
C         16.74457       12.28779       38.69317
O         15.67713       12.33945       38.10277
H         16.73491        9.59259       37.91324
H         18.22863       10.87857       39.35370
H         16.88662       11.23861       40.48174
N         17.55413       13.38402       38.77278
C         17.25578       14.67722       38.15803
C         17.19337       14.55769       36.64361
O         18.17111       14.13997       36.03692
C         18.34219       15.70447       38.56052
C         18.09327       17.11060       38.07138
O         18.98345       18.07558       38.36895
O         17.09989       17.39504       37.42063
H         18.42368       13.29276       39.32221
H         16.28401       15.03980       38.56065
H         19.32955       15.36547       38.17652
H         18.39894       15.74604       39.66985
N         16.06563       14.92511       35.96485
C         15.94025       14.84418       34.51457
C         15.92425       13.42321       33.98249
O         15.85327       13.25725       32.77296
H         15.26780       15.30962       36.49251
H         16.77348       15.41286       34.04719
H         14.98437       15.31953       34.20667
N         15.99176       12.35260       34.81868
C         16.02798       10.96710       34.40214
C         17.38801       10.42624       34.78243
O         17.78766       10.55906       35.93099
C         14.90450       10.16205       35.09538
C         13.52117       10.75573       34.80202
O         14.95233        8.83392       34.63887
H         16.04879       12.50485       35.82413
H         15.88268       10.87605       33.30243
H         15.07122       10.18553       36.19713
H         14.37886        8.29648       35.24548
H         12.73757       10.15101       35.30629
H         13.45235       11.79299       35.19321
H         13.32225       10.76360       33.70982
N         18.15553        9.80014       33.85705
C         19.48502        9.27103       34.13914
C         20.48780        9.81646       33.13027
O         21.52354       10.32089       33.53887
C         19.42714        7.72085       34.25116
C         20.76067        7.16493       34.81315
C         19.01349        7.02367       32.94325
C         20.65131        5.70810       35.27086
H         17.74467        9.65560       32.92491
H         19.81651        9.60848       35.14798
H         18.64287        7.50842       35.01360
H         21.04059        7.74851       35.71804
H         21.57757        7.27624       34.06736
H         19.78148        7.17052       32.15646
H         18.87950        5.93552       33.10152
H         18.03854        7.40939       32.58321
H         20.43947        5.02608       34.42467
H         21.60358        5.38934       35.73952
H         19.85074        5.61013       36.03561
N         20.20228        9.81442       31.79545
C         21.07659       10.34939       30.76193
C         21.25933        9.29163       29.69709
O         20.27431        8.75722       29.20578
C         20.46983       11.62312       30.13463
C         20.36773       12.75034       31.16953
O         21.30193       12.05050       29.08452
H         19.29514        9.44823       31.47821
H         22.06749       10.64014       31.17738
H         19.45547       11.38222       29.73834
H         20.75772       12.64405       28.50426
H         19.95077       13.66275       30.69359
H         19.70524       12.45902       32.01054
H         21.37595       12.99515       31.57050
N         22.50639        8.98006       29.25914
C         22.77070        7.97260       28.24319
C         23.77093        6.98191       28.79107
O         23.46133        5.79817       28.82720
C         23.23773        8.64020       26.92924
C         23.41589        7.60831       25.81103
O         24.43893        9.34548       27.10115
H         23.30117        9.50853       29.64627
H         21.83529        7.42333       27.98818
H         22.43569        9.33685       26.58587
H         24.20027       10.23923       27.46101
H         24.20947        6.87574       26.06893
H         22.46434        7.05952       25.63873
H         23.69857        8.12015       24.86756
N         24.97795        7.40119       29.27516
C         25.95276        6.49269       29.85145
C         26.08423        6.73480       31.34080
O         25.61623        7.74643       31.84823
C         27.32413        6.65886       29.16078
C         27.26689        6.35336       27.65346
C         28.66581        6.29913       27.00605
C         29.45256        7.62400       26.98249
N         28.84050        8.61886       26.10035
H         25.20776        8.40594       29.27804
H         25.61003        5.44188       29.73308
H         28.04140        5.95607       29.63682
H         27.69482        7.69585       29.31837
H         26.61383        7.08224       27.12793
H         26.81702        5.34496       27.52997
H         28.56411        5.93660       25.96034
H         29.26666        5.54670       27.56157
H         30.47357        7.40260       26.59842
H         29.56972        8.03713       28.00673
H         27.89392        8.89207       26.44574
H         29.44765        9.47037       26.07802
H         28.77123        8.23871       25.12787
N         26.70043        5.79699       32.10991
C         26.91238        5.93287       33.54420
C         25.60929        6.16751       34.30895
O         25.53976        7.18754       34.98000
C         27.72013        4.72596       34.07676
C         28.14359        4.89186       35.54442
C         29.06960        3.79626       36.00926
O         29.54204        3.82372       37.26926
O         29.41481        2.89380       35.26097
H         27.04704        4.94451       31.64149
H         27.56013        6.82634       33.69590
H         28.64409        4.65544       33.46073
H         27.16263        3.77379       33.96341
H         27.24244        4.89960       36.19427
H         28.67856        5.85828       35.66127
N         24.52455        5.33720       34.29594
C         24.37547        4.11713       33.53189
H         23.49074        4.21514       32.86751
H         25.24407        3.88489       32.89648
H         24.20059        3.26944       34.22731
H         23.71429        5.60809       34.87189
Ca        15.95046        4.97786       43.22185
O         13.85508        3.23785       41.48399
H         13.24100        2.46997       41.60108
H         13.31293        3.92090       41.01483

Ca 1.0



