%chk=apoCaM-CA-Ng.loop1.water3.frame1495.chk
%nprocshared=20
%mem=10GB
%nosave
#b3lyp/svp scf=(tight,noincore,xqc) Test 
#IOP(5/87=12) Density=Current Pop=(MK,readradii) iop(6/33=2) iop(6/42=6)

apoCaM-CA-Ng.loop1.water3.frame1495 

   0  1 
C         36.70941       70.00830       34.44112
C         37.07031       68.82241       33.59749
O         37.96770       68.07405       33.95196
H         35.64505       69.93944       34.74633
H         37.33689       70.05996       35.35105
H         36.85516       70.93661       33.84624
N         36.39410       68.61166       32.43940
C         36.67971       67.53408       31.49203
C         37.15173       68.07562       30.14073
O         37.50634       67.27727       29.28463
C         35.44547       66.60762       31.33932
C         34.16692       67.27644       30.89751
O         33.05514       66.53594       30.73174
O         34.11106       68.47758       30.70880
H         35.64810       69.28563       32.22314
H         37.51257       66.90436       31.87524
H         35.24067       66.12671       32.31913
H         35.68568       65.80510       30.60888
N         37.19788       69.41531       29.88410
C         37.64492       70.01738       28.63933
C         38.78430       71.03001       28.83186
O         39.01980       71.76010       27.87738
C         36.42488       70.75408       28.02695
C         35.44212       69.78489       27.35295
C         34.24832       70.52851       26.71960
C         33.17325       70.98747       27.72190
N         32.43022       69.84897       28.26563
H         36.85824       70.08059       30.58936
H         38.00923       69.26963       27.89964
H         36.75591       71.43595       27.21404
H         35.93916       71.37970       28.80739
H         35.10851       68.98036       28.03702
H         36.00670       69.30046       26.52609
H         33.75236       69.86401       25.98144
H         34.63529       71.40838       26.15963
H         32.44966       71.63315       27.17880
H         33.61615       71.59331       28.54224
H         33.05837       69.22637       28.80360
H         31.67377       70.19080       28.90031
H         31.99988       69.29293       27.49162
N         39.57628       71.19460       29.93743
C         39.68420       70.34597       31.12822
C         40.20569       68.95659       30.76336
O         40.46326       68.70784       29.59317
C         40.61615       71.00984       32.16811
C         42.04328       71.12632       31.72317
O         43.00998       70.52193       32.43681
O         42.34160       71.76933       30.73006
H         40.20852       72.00459       29.88136
H         38.70788       70.27327       31.63330
H         40.61201       70.40363       33.09107
H         40.22422       72.01945       32.42174
N         40.40052       68.00112       31.72091
C         40.89768       66.66694       31.41122
C         42.19282       66.35738       32.12008
O         42.64336       67.14311       32.93744
H         40.18680       68.21804       32.70417
H         41.07170       66.54731       30.32333
H         40.14052       65.91445       31.72085
N         42.85658       65.20496       31.81817
C         44.06552       64.73751       32.49968
C         43.81973       63.27388       32.95075
O         42.78725       62.73777       32.56861
C         45.26245       64.79613       31.51612
C         45.40884       66.02586       30.61995
O         45.61800       67.28641       31.05011
O         45.39286       65.85491       29.41319
H         42.47566       64.62135       31.05683
H         44.27358       65.38564       33.37411
H         45.14111       63.94122       30.81522
H         46.20684       64.64301       32.07102
N         44.65465       62.50177       33.71344
C         45.87410       62.88687       34.39381
C         45.58035       63.88060       35.48070
O         44.64210       63.67796       36.23899
H         44.36584       61.52130       33.86855
H         46.66057       63.22323       33.69075
H         46.27531       61.98152       34.90281
N         46.38026       64.96339       35.64867
C         46.11920       65.99379       36.64949
C         44.83442       66.73304       36.21944
O         44.99938       67.26775       34.96602
C         47.37137       66.89661       36.78260
C         48.52937       66.08124       37.38599
O         47.10416       67.99026       37.61790
H         47.20388       65.05343       35.03261
H         45.93551       65.52429       37.64149
H         47.65343       67.26311       35.76842
H         47.79739       68.67335       37.41548
H         48.78460       65.20332       36.75563
H         49.43781       66.70920       37.48649
H         48.24393       65.71080       38.39526
N         44.32889       67.75910       37.13717
C         42.90137       68.12696       36.90687
C         42.78854       69.44275       36.15727
O         43.08883       69.49518       34.97471
C         42.01165       67.01154       36.23521
C         41.89860       65.78835       37.17386
C         40.60994       67.54775       35.85652
C         41.21782       64.58088       36.52582
H         44.41471       67.37997       38.10504
H         42.45534       68.31490       37.90671
H         42.48116       66.68966       35.28769
H         41.34852       66.07948       38.09432
H         42.91109       65.45461       37.47555
H         40.00037       66.77687       35.34688
H         40.06995       67.91510       36.75286
H         40.68627       68.37753       35.12330
H         40.16651       64.79393       36.25034
H         41.77940       64.26517       35.62014
H         41.20730       63.73956       37.24890
N         42.25978       70.52819       36.79816
C         41.89562       71.78083       36.14695
C         42.65938       72.97147       36.69712
O         42.41313       74.07435       36.22571
C         40.36844       72.01687       36.33619
C         39.96946       72.34820       37.78516
O         39.65859       70.87400       35.94757
H         42.04361       70.44162       37.80053
H         42.10528       71.71746       35.05569
H         40.04670       72.89020       35.72031
H         39.65163       70.86316       34.96078
H         38.87205       72.50488       37.84289
H         40.23277       71.52744       38.48172
H         40.46043       73.28227       38.13142
N         43.57393       72.84736       37.70351
C         44.22991       74.00280       38.29840
C         45.52185       74.25090       37.55913
O         46.47893       73.51267       37.74271
C         44.39552       73.82549       39.82538
C         43.02541       73.74756       40.51438
O         45.12706       72.65447       40.09205
H         43.82298       71.91353       38.05817
H         43.58913       74.90143       38.15436
H         44.94131       74.71323       40.22053
H         45.49839       72.74247       41.00794
H         42.43376       72.88699       40.13446
H         43.15489       73.62955       41.61068
H         42.45340       74.68226       40.33013
N         45.55657       75.23161       36.60786
C         46.65973       75.48821       35.68980
C         46.94573       74.30182       34.78997
O         46.81600       73.15935       35.19590
C         47.92778       76.01677       36.37315
C         47.66183       77.38567       37.01238
C         48.93578       77.97629       37.63322
C         48.71406       79.41322       38.13719
N         48.68164       80.38324       37.03625
H         44.71150       75.80770       36.47062
H         46.31869       76.30122       35.00679
H         48.70218       76.16523       35.58676
H         48.31571       75.28766       37.11427
H         46.88241       77.29355       37.80156
H         47.27606       78.05888       36.22043
H         49.77922       77.97837       36.90781
H         49.21498       77.32553       38.48955
H         49.55522       79.69089       38.80887
H         47.77485       79.46151       38.73202
H         49.63520       80.45733       36.61084
H         47.99750       80.11918       36.29446
H         48.41510       81.32132       37.41213
N         47.31762       74.52678       33.50533
C         47.48554       73.46935       32.51878
C         46.19505       72.69952       32.30290
O         46.25672       71.48146       32.39741
C         48.01132       74.04951       31.19402
C         49.48826       74.44150       31.35311
C         49.99374       75.16143       30.14313
O         50.89362       74.68447       29.47105
O         49.47558       76.35981       29.81349
H         47.45701       75.50557       33.20832
H         48.24674       72.73763       32.87641
H         47.38734       74.91589       30.88692
H         47.95574       73.28386       30.38823
H         50.07756       73.50995       31.51913
H         49.63533       75.10336       32.23184
N         44.98342       73.25688       32.01722
C         44.64282       74.65943       31.92069
H         43.85207       74.88143       32.67081
H         45.48548       75.33943       32.10076
H         44.23168       74.86800       30.91158
H         44.20414       72.61322       31.88377
Ca        45.25488       68.19737       33.01081
O         44.01919       69.28671       30.16241
H         43.09083       69.22326       29.82962
H         44.55859       68.83944       29.46546
O         47.86644       68.86570       33.70940
H         48.28461       68.14160       33.17880
H         48.60597       69.25860       34.23518
O         45.57914       70.70061       35.14370
H         44.96802       71.40742       34.81300
H         45.49975       70.74896       36.12898

Ca 1.0



