%chk=apoCaM-CA-Ng.loop1.water3.frame219.chk
%nprocshared=20
%mem=10GB
%nosave
#b3lyp/svp scf=(tight,noincore,xqc) Test 
#IOP(5/87=12) Density=Current Pop=(MK,readradii) iop(6/33=2) iop(6/42=6)

apoCaM-CA-Ng.loop1.water3.frame219 

   0  1 
C         10.91123       11.79093       68.40043
C          9.76719       12.37970       69.16891
O          9.88678       12.56348       70.37208
H         11.76054       11.55505       69.07651
H         10.58171       10.85332       67.90420
H         11.25193       12.51226       67.62929
N          8.59939       12.66428       68.52875
C          7.42201       13.19071       69.20804
C          6.34796       12.12280       69.37410
O          5.28785       12.45190       69.87474
C          6.90954       14.48824       68.53365
C          6.39468       14.32197       67.13048
O          5.10960       14.61397       66.85318
O          7.13983       13.97607       66.22841
H          8.52999       12.43664       67.52612
H          7.68177       13.48681       70.24282
H          7.72107       15.24842       68.52678
H          6.08430       14.89696       69.15633
N          6.57331       10.80831       69.07428
C          5.61162        9.74347       69.35256
C          6.18523        8.79136       70.39726
O          7.30977        8.35197       70.19606
C          5.29873        8.91563       68.09023
C          4.40811        9.59838       67.04338
C          5.08309       10.69256       66.21030
C          4.10774       11.17265       65.12158
N          4.72466       12.16064       64.24034
H          7.48561       10.52352       68.68943
H          4.66347       10.15581       69.71566
H          4.70324        8.04041       68.43469
H          6.22832        8.51931       67.62443
H          3.49176        9.99308       67.53556
H          4.09820        8.79793       66.33593
H          5.98971       10.26975       65.72498
H          5.37983       11.54898       66.84701
H          3.20556       11.61293       65.59879
H          3.78169       10.30394       64.50654
H          5.01548       13.00119       64.78567
H          5.55383       11.74280       63.75923
H          4.02660       12.45203       63.51808
N          5.50503        8.33925       71.50351
C          4.13863        8.66141       71.92915
C          3.07666        8.29573       70.89629
O          2.57196        9.18922       70.23216
C          3.98299       10.09696       72.48334
C          4.75181       10.31700       73.75584
O          5.49062        9.45465       74.20382
O          4.57813       11.46268       74.44128
H          6.00352        7.65906       72.09942
H          3.89061        8.05594       72.82638
H          2.91659       10.23563       72.75737
H          4.25565       10.87512       71.74752
N          2.56658        7.03440       70.76081
C          2.97365        5.85407       71.51471
C          3.32899        4.71287       70.59306
O          3.27831        4.88921       69.38304
H          1.78783        6.91002       70.09414
H          2.12269        5.53722       72.14726
H          3.84773        6.04914       72.16098
N          3.73656        3.49692       71.05927
C          3.87166        3.13124       72.47084
C          2.52708        2.96288       73.16016
O          1.68936        2.23603       72.64214
C          4.68119        1.82082       72.63283
C          4.00856        0.57604       72.10597
O          3.70538       -0.42600       72.95351
O          3.74533        0.45722       70.92062
H          4.02253        2.80968       70.34647
H          4.48191        3.90541       72.98502
H          4.86448        1.67450       73.72054
H          5.66963        1.93881       72.13981
N          2.28100        3.54517       74.37164
C          1.05032        3.31754       75.12042
C          0.22858        4.56761       75.29501
O         -0.90395        4.44381       75.74195
H          3.00698        4.13882       74.79983
H          1.28068        2.87323       76.11135
H          0.39879        2.59560       74.58159
N          0.68183        5.79574       74.91028
C         -0.23606        6.90715       74.71659
C         -0.90521        6.68746       73.36815
O         -0.48695        5.79275       72.64256
C          0.53245        8.25366       74.77237
C          1.19416        8.45457       76.14050
O         -0.34358        9.32415       74.53843
H          1.62404        5.88839       74.50696
H         -1.01374        6.90091       75.51344
H          1.32055        8.23488       73.98125
H          0.21494       10.09804       74.26293
H          0.42194        8.48847       76.93903
H          1.91039        7.63683       76.36414
H          1.75176        9.41387       76.14649
N         -1.95759        7.44623       72.96182
C         -2.56959        7.26567       71.64784
C         -2.31290        8.47254       70.75743
O         -2.62058        8.38705       69.57578
C         -4.06685        6.85301       71.77014
C         -4.94275        7.96397       72.40284
C         -4.16831        5.52802       72.55604
C         -6.43425        7.61634       72.43894
H         -2.32562        8.17097       73.59387
H         -2.06955        6.43178       71.10805
H         -4.44444        6.66125       70.74075
H         -4.83696        8.88502       71.79540
H         -4.61079        8.18760       73.43811
H         -5.20412        5.13428       72.56079
H         -3.53349        4.74946       72.08187
H         -3.83539        5.66304       73.60776
H         -7.00588        8.47994       72.83871
H         -6.80484        7.38752       71.41720
H         -6.63359        6.75215       73.10486
N         -1.73038        9.61674       71.23299
C         -1.37996       10.75243       70.38903
C          0.01845       11.28589       70.71926
O          0.65607       10.82922       71.65713
C         -2.46176       11.85808       70.49746
C         -2.67288       12.37247       71.92775
O         -3.67840       11.40927       69.95277
H         -1.54180        9.71585       72.23801
H         -1.34960       10.43120       69.32364
H         -2.14593       12.72349       69.87888
H         -4.04302       10.70581       70.54771
H         -1.72627       12.77891       72.33959
H         -3.43428       13.18027       71.91958
H         -3.03722       11.55888       72.59046
N          0.55414       12.25838       69.93265
C          1.89636       12.83848       70.07176
C          2.10607       13.62596       71.37591
O          1.18436       13.75079       72.16918
C          2.16902       13.76274       68.84245
C          1.22621       14.98280       68.78677
O          2.03480       13.00780       67.66571
H         -0.02092       12.55177       69.13087
H          2.63792       12.01120       70.04257
H          3.21275       14.13763       68.89568
H          2.44113       13.53956       66.93224
H          1.47911       15.61298       67.90901
H          0.16236       14.68516       68.68887
H          1.33190       15.60650       69.69763
N          3.30413       14.25723       71.59842
C          3.55688       15.22663       72.66182
C          4.91613       15.05062       73.36145
O          5.22903       15.88624       74.19946
C          3.44383       16.65054       72.05549
C          4.40662       16.92028       70.88296
C          4.23155       18.34142       70.33574
C          5.13924       18.57461       69.11946
N          4.97666       19.93065       68.59628
H          4.03593       14.17036       70.88842
H          2.76776       15.16254       73.44281
H          3.61209       17.40446       72.85577
H          2.40336       16.78716       71.68641
H          4.18813       16.21409       70.05598
H          5.45841       16.77873       71.21372
H          4.47749       19.07667       71.13274
H          3.17343       18.48976       70.02568
H          4.88228       17.84240       68.32079
H          6.20192       18.41759       69.40915
H          3.98457       20.08858       68.30465
H          5.24636       20.63097       69.32473
H          5.59672       20.05280       67.76322
N          5.76799       14.00969       73.11095
C          7.06784       13.87967       73.78112
C          8.04071       14.93877       73.29541
O          8.30297       15.01230       72.10353
C          7.67003       12.46931       73.56060
C          9.07090       12.26081       74.17677
C          9.17671       12.62909       75.63815
O          8.46909       11.99757       76.59660
O          9.94643       13.51552       75.97195
H          5.47581       13.26808       72.45925
H          6.91681       13.97445       74.87881
H          7.73898       12.24725       72.47305
H          6.99050       11.73125       74.01393
H          9.79576       12.88194       73.60658
H          9.36945       11.19888       74.04427
N          8.67088       15.75391       74.18468
C          9.68830       16.69722       73.77376
H         10.52282       16.15635       73.27525
H          9.26055       17.44428       73.07395
H         10.09868       17.22317       74.66198
H          8.45721       15.67568       75.19023
Ca         7.07825       10.24988       76.32193
O          5.47109       13.13349       77.38120
H          6.33253       13.62131       77.37666
H          5.03044       13.41885       78.22075
O          3.75797       10.37496       78.03736
H          3.59341       10.91272       78.85228
H          3.34004       10.89801       77.30800
O          5.03746        7.64494       76.58744
H          5.70807        6.99183       76.26446
H          4.93652        7.44245       77.55127

Ca 1.0



