%chk=apoCaM-CA-Ng.loop1.water4.frame298.chk
%nprocshared=20
%mem=10GB
%nosave
#b3lyp/svp scf=(tight,noincore,xqc) Test 
#IOP(5/87=12) Density=Current Pop=(MK,readradii) iop(6/33=2) iop(6/42=6)

apoCaM-CA-Ng.loop1.water4.frame298 

   0  1 
C         52.82179       52.82611       36.36967
C         52.74854       53.66540       35.12886
O         53.51967       54.60332       34.98753
H         53.61943       53.19211       37.04989
H         51.84807       52.85417       36.90075
H         53.05117       51.77505       36.08955
N         51.84912       53.35174       34.15865
C         51.78075       54.05081       32.87983
C         51.20711       55.46763       32.97779
O         51.15259       56.10719       31.94493
C         50.89472       53.25076       31.88749
C         51.36725       51.84559       31.61140
O         52.48210       51.35207       32.18517
O         50.72976       51.14198       30.84404
H         51.24771       52.52610       34.31061
H         52.80620       54.09966       32.44775
H         50.87686       53.77181       30.90845
H         49.85574       53.20423       32.28298
N         50.71630       56.02132       34.12636
C         49.95525       57.27939       34.13575
C         50.60632       58.36813       34.97096
O         51.09444       58.04435       36.04447
C         48.55257       57.00632       34.70642
C         47.70341       56.17339       33.73996
C         46.30065       55.94497       34.31781
C         45.38097       55.15848       33.36999
N         44.99045       55.93909       32.19290
H         50.79380       55.50469       35.01378
H         49.80847       57.66191       33.11874
H         48.02246       57.96851       34.86072
H         48.63686       56.51029       35.69846
H         48.19067       55.19284       33.54698
H         47.63409       56.73106       32.78483
H         45.81787       56.91574       34.56769
H         46.41630       55.36194       35.25691
H         44.45667       54.89411       33.92837
H         45.87821       54.21254       33.06068
H         44.36929       55.35490       31.58818
H         44.46594       56.79439       32.48761
H         45.81686       56.22402       31.62955
N         50.56628       59.70835       34.64763
C         50.00276       60.34767       33.44244
C         48.52500       60.03502       33.26886
O         48.16567       59.33013       32.33722
C         50.87368       60.08483       32.18966
C         52.26658       60.60509       32.40448
O         52.57897       61.20083       33.57317
O         53.12803       60.41787       31.56128
H         50.96826       60.35608       35.34392
H         50.06563       61.45264       33.55516
H         50.43943       60.59516       31.30291
H         50.94403       59.00889       31.96492
N         47.57713       60.54432       34.10861
C         47.88116       61.55507       35.11294
C         46.66004       62.03391       35.88635
O         45.60966       61.41547       35.79350
H         46.59879       60.25960       33.95158
H         48.28146       62.42869       34.55467
H         48.64248       61.19074       35.83465
N         46.68066       63.17610       36.64023
C         47.82725       64.07928       36.70863
C         47.65610       65.19459       35.69945
O         46.56452       65.37784       35.17597
C         48.08087       64.61695       38.13478
C         46.99086       65.52270       38.65428
O         45.86032       65.10220       38.83755
O         47.27187       66.80693       38.94796
H         45.78614       63.48292       37.04821
H         48.74478       63.52846       36.42029
H         49.02861       65.19898       38.12164
H         48.21805       63.76698       38.83659
N         48.73137       65.93508       35.31751
C         48.65889       66.95300       34.28680
C         48.15514       66.37356       32.98488
O         47.17018       66.87012       32.45590
H         49.65164       65.74150       35.74187
H         49.67589       67.37056       34.11898
H         47.99658       67.78072       34.62123
N         48.79397       65.31905       32.40473
C         48.37719       64.76305       31.11684
C         47.00811       64.08783       31.23213
O         46.57334       63.81240       32.34243
C         49.41731       63.72786       30.59457
C         50.84776       64.28536       30.52302
O         49.05023       63.31285       29.30769
H         49.61647       64.93424       32.89042
H         48.32320       65.60687       30.39334
H         49.41009       62.85453       31.28867
H         49.61664       62.53065       29.08300
H         50.88880       65.15885       29.84078
H         51.23350       64.58037       31.51626
H         51.53152       63.49707       30.13990
N         46.29144       63.76235       30.11227
C         45.05395       62.97489       30.14586
C         45.21734       61.64670       29.38595
O         44.29922       60.83907       29.42598
C         43.82763       63.80759       29.64730
C         43.90759       64.15409       28.13834
C         43.66387       65.07022       30.51580
C         42.66989       64.88121       27.60142
H         46.64952       64.07199       29.19746
H         44.82910       62.68777       31.19668
H         42.91908       63.18154       29.79826
H         43.98080       63.20710       27.57174
H         44.80457       64.77110       27.92188
H         44.52375       65.75989       30.37828
H         42.73036       65.61415       30.26634
H         43.59519       64.79196       31.58852
H         41.75299       64.28434       27.79455
H         42.55880       65.88643       28.05567
H         42.77198       65.02291       26.50448
N         46.35634       61.34976       28.68640
C         46.61811       60.10355       27.97121
C         47.89761       59.48132       28.51425
O         48.88183       60.18867       28.67661
C         46.79499       60.37691       26.46129
C         45.53697       60.99572       25.84716
O         47.06903       59.16198       25.81018
H         47.10669       62.04313       28.63197
H         45.77407       59.38573       28.08108
H         47.65014       61.08075       26.32434
H         47.49490       59.38791       24.94255
H         44.66078       60.32775       25.99277
H         45.33211       61.97928       26.30741
H         45.68744       61.15678       24.75916
N         47.97012       58.14875       28.77907
C         49.15488       57.51551       29.36035
C         50.43363       57.73702       28.56231
O         50.37770       57.87520       27.34803
C         48.94459       55.98840       29.53414
C         48.81183       55.22965       28.20400
O         47.80992       55.75922       30.32129
H         47.13768       57.57187       28.58491
H         49.30088       57.96533       30.36619
H         49.83529       55.58646       30.04856
H         47.89227       54.84193       30.69287
H         49.73313       55.33821       27.59463
H         48.67794       54.14624       28.40663
H         47.94421       55.59205       27.61664
N         51.63983       57.69166       29.20529
C         52.92912       57.66180       28.52486
C         54.05761       57.87196       29.53773
O         54.77923       58.84954       29.39917
C         53.05506       56.31480       27.76749
C         54.31790       56.12191       26.91568
C         54.44899       57.16533       25.79700
C         55.57859       56.78972       24.82793
N         55.73536       57.80434       23.78643
H         51.63622       57.64521       30.22963
H         52.95976       58.50700       27.80305
H         52.18966       56.19935       27.08198
H         52.99789       55.48033       28.50002
H         54.23000       55.11447       26.45033
H         55.22809       56.12855       27.55292
H         54.65448       58.16102       26.24433
H         53.49956       57.21781       25.21983
H         55.33789       55.81209       24.35139
H         56.53646       56.68256       25.38266
H         56.48090       57.49838       23.12013
H         54.84016       57.92606       23.25916
H         56.01864       58.71455       24.21657
N         54.23924       57.03040       30.60288
C         55.22860       57.26169       31.65908
C         56.21317       56.11552       31.72796
O         55.81369       54.98866       31.98717
C         54.49366       57.46945       33.00253
C         55.35881       57.61323       34.27529
C         56.51107       58.58783       34.20071
O         57.55161       58.25363       33.66372
O         56.45599       59.79154       34.79626
H         53.62111       56.21003       30.69721
H         55.79491       58.19705       31.46187
H         53.79780       56.62227       33.18298
H         53.87386       58.38053       32.90077
H         55.78276       56.62759       34.56662
H         54.66981       57.91347       35.09592
N         57.54109       56.35845       31.52874
C         58.57625       55.35435       31.64281
H         59.28935       55.66137       32.43828
H         58.17077       54.35544       31.90290
H         59.12592       55.28375       30.68172
H         57.85076       57.31576       31.30209
Ca        54.59876       60.95177       34.44255
O         53.53400       64.38152       33.03399
H         53.42494       65.32326       33.31963
H         53.77674       64.44091       32.07583
O         55.82532       62.40131       31.87853
H         55.02948       62.20532       31.32387
H         56.46685       61.68223       31.65241
O         58.32492       62.22088       34.36031
H         58.01182       61.49561       33.76399
H         57.96444       61.98810       35.25302
O         56.48516       64.73112       34.33624
H         57.07290       65.14251       33.65371
H         57.06154       64.63775       35.13601

Ca 1.0



