%chk=apoCaM-CA-Ng.loop1.water3.frame1047.chk
%nprocshared=20
%mem=10GB
%nosave
#b3lyp/svp scf=(tight,noincore,xqc) Test 
#IOP(5/87=12) Density=Current Pop=(MK,readradii) iop(6/33=2) iop(6/42=6)

apoCaM-CA-Ng.loop1.water3.frame1047 

   0  1 
C         16.24761       85.47180       58.94211
C         15.82004       84.13326       59.46554
O         16.51009       83.61073       60.32420
H         17.25209       85.37680       58.47673
H         15.54121       85.85817       58.17890
H         16.30415       86.19718       59.78023
N         14.67750       83.53739       59.01103
C         14.20046       82.21747       59.43082
C         15.00145       81.09495       58.76712
O         14.49243       80.39482       57.90289
C         12.66765       82.06884       59.23042
C         12.17130       82.11453       57.80721
O         11.52700       81.04975       57.29257
O         12.30208       83.11869       57.12737
H         14.10164       84.08089       58.35580
H         14.31441       82.12373       60.53422
H         12.15205       82.86487       59.81042
H         12.36570       81.09204       59.67100
N         16.26523       80.83916       59.19279
C         17.13904       79.79656       58.68285
C         17.28027       78.68329       59.72461
O         16.98024       77.55803       59.34939
C         18.48349       80.39732       58.21341
C         18.28326       81.36464       57.03102
C         19.60406       82.03016       56.62326
C         19.41098       82.95672       55.41357
N         20.66179       83.63190       55.06698
H         16.62011       81.40026       59.95918
H         16.68820       79.31985       57.78107
H         19.15754       79.57685       57.88227
H         18.98519       80.93802       59.03604
H         17.56296       82.16388       57.31197
H         17.86620       80.79877       56.16828
H         20.35518       81.25165       56.36687
H         19.98378       82.62580       57.48241
H         18.63751       83.72276       55.64478
H         19.06192       82.35840       54.54224
H         20.97585       84.23301       55.86348
H         21.40307       82.92925       54.84209
H         20.50465       84.23837       54.22972
N         17.63579       78.83405       61.04338
C         17.96729       80.07021       61.75378
C         16.72254       80.63851       62.45177
O         15.67231       80.01504       62.39131
C         19.13318       79.79758       62.74038
C         18.72379       78.85219       63.84262
O         17.70191       79.22338       64.62706
O         19.26962       77.77195       63.99834
H         17.57357       77.98115       61.62195
H         18.33649       80.82900       61.05041
H         19.45369       80.75358       63.20191
H         19.99873       79.38404       62.17816
N         16.75345       81.84506       63.09366
C         15.56832       82.43373       63.71705
C         15.30263       81.89848       65.11267
O         16.11483       81.15806       65.63860
H         17.61857       82.40442       63.06227
H         14.68893       82.29215       63.05229
H         15.72026       83.52811       63.83161
N         14.16324       82.25547       65.77995
C         13.86261       81.84453       67.15916
C         13.34595       83.02847       67.97935
O         13.01014       84.04679       67.39406
C         12.83819       80.68249       67.11907
C         13.54356       79.46035       66.61348
O         14.58988       78.97556       67.31826
O         13.24977       78.97744       65.53289
H         13.45919       82.80992       65.26957
H         14.79297       81.49827       67.65085
H         11.97995       80.96663       66.47063
H         12.41927       80.42176       68.10321
N         13.23767       83.00315       69.34693
C         13.68882       81.92495       70.21602
C         15.19429       81.79892       70.26247
O         15.89779       82.62840       69.69857
H         12.81874       83.82521       69.81086
H         13.22990       80.96667       69.93195
H         13.35979       82.13167       71.25787
N         15.75793       80.77074       70.95688
C         17.20323       80.61007       71.11676
C         17.88911       80.44426       69.77114
O         17.24682       80.02746       68.81876
C         17.54296       79.39615       72.01877
C         16.96062       79.52784       73.43137
O         18.93686       79.26421       72.12403
H         15.12154       80.09059       71.39891
H         17.59173       81.53620       71.59757
H         17.11473       78.48735       71.53419
H         19.11851       78.30585       72.30490
H         17.23443       78.63137       74.02725
H         17.36930       80.42937       73.93399
H         15.85462       79.59262       73.42012
N         19.20115       80.80844       69.63135
C         19.96398       80.75934       68.38555
C         20.21938       79.31534       67.96834
O         19.27464       78.56787       67.75893
C         19.28522       81.59814       67.25340
C         19.00346       83.04705       67.73798
C         20.16859       81.60983       65.98947
C         18.13294       83.85861       66.77524
H         19.68707       81.19533       70.45478
H         20.95117       81.23632       68.58269
H         18.32144       81.12397       66.98667
H         19.96154       83.58033       67.92154
H         18.44264       83.01844       68.69462
H         19.67763       82.15507       65.16007
H         21.14776       82.09027       66.20177
H         20.35523       80.57804       65.62763
H         17.15357       83.35724       66.64006
H         17.94358       84.86360       67.20713
H         18.61561       83.99825       65.78848
N         21.49620       78.87719       67.76484
C         21.79401       77.54626       67.23795
C         21.64374       76.43323       68.27755
O         21.56977       75.27742       67.88505
C         23.21451       77.50646       66.60110
C         24.34935       77.61352       67.63163
O         23.35657       78.55486       65.67523
H         22.26302       79.55817       67.87005
H         21.08046       77.36004       66.40304
H         23.35897       76.53361       66.07656
H         22.78791       78.33452       64.89256
H         24.31954       76.75894       68.33963
H         25.33022       77.58489       67.11051
H         24.29155       78.55862       68.20917
N         21.74518       76.69320       69.61498
C         21.81910       75.63982       70.63336
C         20.48883       74.94031       70.84566
O         19.51110       75.60167       71.16601
C         22.32483       76.18140       71.99521
C         23.76319       76.71578       71.91323
O         21.45136       77.13946       72.54163
H         21.89546       77.66956       69.90137
H         22.58054       74.89369       70.31105
H         22.35980       75.32380       72.70388
H         21.61160       78.00664       72.08828
H         23.83555       77.58519       71.22758
H         24.10090       77.02928       72.92315
H         24.44474       75.91783       71.54773
N         20.39867       73.58155       70.72396
C         19.17646       72.81485       70.94613
C         18.10198       73.31304       70.00318
O         17.10537       73.87355       70.43988
C         18.71086       72.82004       72.42059
C         19.77793       72.31127       73.41145
C         19.14205       71.72988       74.69045
C         18.22836       72.69320       75.46487
N         17.53182       71.97957       76.53763
H         21.23891       73.05230       70.44506
H         19.37954       71.74598       70.70538
H         17.84426       72.12194       72.44797
H         18.35858       73.82100       72.75013
H         20.50496       73.12410       73.63291
H         20.33883       71.46735       72.95409
H         19.94471       71.36141       75.36710
H         18.53534       70.85154       74.37944
H         17.45836       73.11949       74.78785
H         18.82858       73.52901       75.88624
H         16.90848       72.64414       77.04986
H         16.93656       71.22117       76.12828
H         18.21638       71.56043       77.20731
N         18.28500       73.16470       68.66582
C         17.44080       73.79336       67.66011
C         18.30355       74.66038       66.74686
O         18.09367       75.86421       66.77647
C         16.54578       72.78526       66.90198
C         15.35061       72.33983       67.76343
C         14.43752       71.42299       67.00033
O         13.91159       71.79866       65.96395
O         14.17421       70.18912       67.46990
H         19.10727       72.62658       68.36339
H         16.73392       74.49783       68.15281
H         17.10124       71.89637       66.55276
H         16.12750       73.29741       66.01001
H         14.75886       73.23406       68.06238
H         15.70748       71.83226       68.68436
N         19.29299       74.21164       65.91542
C         19.72092       72.84314       65.70892
H         20.79495       72.75397       65.97357
H         19.17345       72.10009       66.29877
H         19.59347       72.58235       64.63806
H         19.80249       74.91992       65.36437
Ca        16.39864       78.27045       66.18424
O         15.04726       77.16892       63.63270
H         15.15266       78.12559       63.85573
H         14.27803       76.88077       64.18353
O         14.99690       75.74381       66.60390
H         14.17278       76.02011       67.07578
H         14.68071       75.17690       65.85720
O         16.53952       76.95802       69.34891
H         17.52819       76.91508       69.38336
H         16.24301       76.48360       70.16569

Ca 1.0



