%chk=apoCaM-CA-Ng.loop2.water2.frame845.chk
%nprocshared=20
%mem=10GB
%nosave
#b3lyp/svp scf=(tight,noincore,xqc) Test 
#IOP(5/87=12) Density=Current Pop=(MK,readradii) iop(6/33=2) iop(6/42=6)

apoCaM-CA-Ng.loop2.water2.frame845 

   -2  1 
C         56.94448      -20.37437       88.13253
C         55.97900      -21.28977       87.43689
O         54.90376      -21.52447       87.97030
H         57.87556      -20.24026       87.54286
H         56.47237      -19.37907       88.27398
H         57.21003      -20.79397       89.12524
N         56.29096      -21.84545       86.22959
C         55.38186      -22.73718       85.51075
C         54.10499      -22.02403       85.04573
O         53.20267      -22.69997       84.57170
C         56.12176      -23.36819       84.31036
C         55.31182      -24.42777       83.61628
O         54.90778      -25.52053       84.29232
O         55.02454      -24.30730       82.43621
H         57.22028      -21.64827       85.82620
H         55.10379      -23.55612       86.21241
H         57.05579      -23.85036       84.67284
H         56.40242      -22.56662       83.59129
N         53.95173      -20.67156       85.15982
C         52.73830      -19.94721       84.80130
C         53.06980      -18.83152       83.81954
O         54.04541      -18.13646       84.07156
C         52.16341      -19.31645       86.07109
H         54.71936      -20.10609       85.54657
H         51.96428      -20.63419       84.42026
H         51.23329      -18.75836       85.83281
H         51.91725      -20.10959       86.80831
H         52.89228      -18.61513       86.53196
N         52.30542      -18.48335       82.74088
C         51.04224      -19.08169       82.30583
C         51.04161      -19.30386       80.79841
O         52.00469      -18.95286       80.13105
C         49.86714      -18.19939       82.78525
C         50.07877      -16.74276       82.49431
O         50.18413      -16.28177       81.23666
O         50.22551      -15.96461       83.42464
H         52.60738      -17.63778       82.23275
H         50.88724      -20.08041       82.74769
H         49.81138      -18.30634       83.89122
H         48.89678      -18.54538       82.37331
N         50.00577      -19.96771       80.20987
C         49.99853      -20.35960       78.80919
C         48.66591      -20.08330       78.15243
O         47.97325      -21.04849       77.86087
H         49.23667      -20.31226       80.80527
H         50.14266      -21.46253       78.79820
H         50.83405      -19.92221       78.22588
N         48.18702      -18.83979       77.86848
C         48.88130      -17.57475       78.08150
C         50.08622      -17.46818       77.14948
O         49.92222      -17.67838       75.95513
C         47.89025      -16.42123       77.78143
C         48.36295      -15.05268       78.19334
N         47.59884      -13.97286       77.91813
O         49.41435      -14.90793       78.79383
H         47.23905      -18.80080       77.45796
H         49.17010      -17.49711       79.15048
H         46.94640      -16.59620       78.34194
H         47.65174      -16.41813       76.69478
H         46.70313      -14.07318       77.42021
H         47.90629      -13.03250       78.19467
N         51.31463      -17.10465       77.61899
C         52.50541      -17.00029       76.77929
C         53.00271      -15.57229       76.60076
O         54.01473      -15.39954       75.93634
H         51.40924      -16.87398       78.61615
H         52.31215      -17.39845       75.75942
H         53.30622      -17.62408       77.23050
N         52.31987      -14.50042       77.09860
C         52.67347      -13.10027       76.84935
C         52.83868      -12.34685       78.16943
O         52.80059      -12.97405       79.21857
C         51.58853      -12.43991       75.94301
C         51.35142      -13.23005       74.64858
O         50.37442      -12.22358       76.61744
H         51.46590      -14.67614       77.63251
H         53.63074      -13.03097       76.28705
H         51.96017      -11.44290       75.62985
H         50.09716      -13.07307       77.03593
H         50.94207      -14.23933       74.86698
H         50.62562      -12.69223       74.00292
H         52.30468      -13.34276       74.08852
N         52.98233      -10.98835       78.19584
C         53.11250      -10.20673       79.42400
C         51.82539       -9.42968       79.64976
O         51.43139       -8.65445       78.78803
C         54.34093       -9.25765       79.32164
C         54.47851       -8.29618       80.53485
C         55.63708      -10.05593       79.09813
C         54.71032       -8.97879       81.88515
H         52.95911      -10.46489       77.30896
H         53.26522      -10.88123       80.29339
H         54.19641       -8.60952       78.42771
H         53.56250       -7.67173       80.61318
H         55.32598       -7.60187       80.34699
H         56.49922       -9.36340       78.99455
H         55.83037      -10.75271       79.93975
H         55.57177      -10.65490       78.16563
H         54.77718       -8.20370       82.67736
H         53.87150       -9.65473       82.13667
H         55.65860       -9.55232       81.88796
N         51.11505       -9.60579       80.80306
C         49.84233       -8.95920       81.09579
C         49.91207       -8.08363       82.34417
O         48.88257       -7.54011       82.71373
C         48.75317      -10.03283       81.29054
C         48.56918      -10.87945       80.06421
O         47.49805      -10.87968       79.47890
O         49.57443      -11.65546       79.61556
H         51.47995      -10.25593       81.51301
H         49.52513       -8.30366       80.25362
H         47.78616       -9.53036       81.51721
H         49.01212      -10.68851       82.14890
N         51.08363       -7.85454       83.01626
C         51.16975       -6.96644       84.17154
C         52.00793       -7.59169       85.29135
O         53.16530       -7.87593       85.02724
C         51.85539       -5.65421       83.73334
C         52.03756       -4.71525       84.90477
C         53.33031       -4.40656       85.36112
C         50.92626       -4.16941       85.57015
C         53.50714       -3.57731       86.47124
C         51.10784       -3.33834       86.67968
C         52.39717       -3.04502       87.13154
H         51.96130       -8.24685       82.65546
H         50.15719       -6.70188       84.51886
H         51.25935       -5.15191       82.94063
H         52.84531       -5.90742       83.29233
H         54.20123       -4.82147       84.86904
H         49.92085       -4.39302       85.23614
H         54.50575       -3.35340       86.82281
H         50.24878       -2.92629       87.19294
H         52.53675       -2.40675       87.99404
N         51.55759       -7.73816       86.58541
C         52.44716       -8.03571       87.70856
C         53.23356       -9.33061       87.66902
O         54.03468       -9.52968       88.57377
C         51.51795       -8.03234       88.92527
C         50.50392       -6.98780       88.52796
C         50.24482       -7.35508       87.07045
H         53.16733       -7.18787       87.76838
H         50.97573       -9.00511       88.97918
H         52.03106       -7.85333       89.89481
H         49.59414       -6.94375       89.16282
H         51.01179       -5.99533       88.55808
H         49.56856       -8.23483       86.99105
H         49.79775       -6.46783       86.58683
N         53.07699      -10.26379       86.68776
C         53.85898      -11.49713       86.66955
C         55.35727      -11.25462       86.52464
O         56.11728      -12.18581       86.75301
C         53.37399      -12.44958       85.55992
C         53.56802      -11.88636       84.13673
C         53.02225      -12.85548       83.13802
O         51.97338      -12.51797       82.36533
O         53.49056      -13.97995       83.05950
H         52.35497      -10.11511       85.97072
H         53.68652      -12.00214       87.64717
H         52.29346      -12.65677       85.72600
H         53.92183      -13.41442       85.64926
H         54.64407      -11.70860       83.92310
H         53.02624      -10.92551       84.02634
N         55.85961      -10.05302       86.12114
C         57.28076       -9.82234       85.98880
H         57.72099      -10.54810       85.27236
H         57.46240       -8.79405       85.61005
H         57.77244       -9.92992       86.97875
H         55.22772       -9.27910       85.87699
Ca        51.05342      -14.21516       81.22855
O         53.50771      -15.66095       80.09255
H         53.98282      -15.51627       80.94762
H         52.85862      -16.37724       80.29614
O         48.19896      -13.40000       82.52874
H         47.97199      -12.72333       83.21486
H         48.14700      -14.26371       83.00912

Ca 1.0



