%chk=apoCaM-CA-Ng.loop1.water3.frame443.chk
%nprocshared=20
%mem=10GB
%nosave
#b3lyp/svp scf=(tight,noincore,xqc) Test 
#IOP(5/87=12) Density=Current Pop=(MK,readradii) iop(6/33=2) iop(6/42=6)

apoCaM-CA-Ng.loop1.water3.frame443 

   0  1 
C        114.80116       87.60091       73.34233
C        114.37147       87.48996       71.91080
O        113.87966       86.44111       71.51798
H        115.88090       87.85662       73.39159
H        114.21113       88.39362       73.84588
H        114.64167       86.63888       73.87597
N        114.57215       88.53246       71.05499
C        114.22075       88.47973       69.64052
C        115.50957       88.33264       68.84561
O        115.77869       89.13940       67.97060
C        113.46072       89.77157       69.23327
C        112.22944       90.05385       70.04907
O        111.14214       90.15228       69.50365
O        112.32844       90.27598       71.37436
H        115.05263       89.37472       71.40896
H        113.58617       87.59384       69.43083
H        113.18510       89.70327       68.15821
H        114.13677       90.64626       69.36036
N        116.41398       87.36651       69.17825
C        117.77553       87.35777       68.65266
C        118.24399       85.98105       68.21148
O        117.98705       85.03162       68.93872
C        118.72076       87.83827       69.76791
C        118.54218       89.33408       70.06205
C        119.53810       89.78231       71.13138
C        119.43605       91.28760       71.39419
N        120.37070       91.68794       72.44473
H        116.19083       86.72148       69.95124
H        117.86630       88.06197       67.81895
H        119.77105       87.69146       69.45026
H        118.56593       87.23132       70.68708
H        117.50738       89.54311       70.40711
H        118.72859       89.91100       69.12873
H        120.57280       89.54873       70.79476
H        119.33045       89.22477       72.07027
H        118.39974       91.54460       71.70648
H        119.67054       91.84491       70.45890
H        121.35198       91.46608       72.15783
H        120.28750       92.71722       72.60568
H        120.14279       91.18590       73.33380
N        119.07232       85.77184       67.13312
C        119.54689       86.76609       66.16005
C        120.20463       87.98110       66.82049
O        119.67991       89.08031       66.71381
C        118.42603       87.12852       65.16471
C        118.03703       85.95171       64.31481
O        117.05833       86.03219       63.59095
O        118.75497       84.80915       64.32650
H        119.42347       84.81019       67.00000
H        120.32439       86.29283       65.52950
H        118.75867       87.92958       64.47112
H        117.53160       87.47559       65.71625
N        121.38614       87.89497       67.49247
C        122.18069       86.68160       67.50172
C        123.51759       86.83336       68.20261
O        123.73227       87.81814       68.89425
H        121.75474       88.75484       67.92692
H        122.40236       86.46175       66.43896
H        121.62215       85.83539       67.95399
N        124.52233       85.92513       68.02395
C        124.42321       84.76827       67.13604
C        125.12470       85.05487       65.82026
O        125.76579       86.08833       65.67835
C        124.90387       83.47806       67.83224
C        126.36331       83.45084       68.21418
O        127.19043       84.47561       67.92991
O        126.80946       82.46865       68.78439
H        125.43186       86.13187       68.46262
H        123.36493       84.57798       66.87063
H        124.71317       82.61211       67.16201
H        124.29369       83.33426       68.75035
N        124.96328       84.20156       64.77494
C        125.48732       84.44525       63.44299
C        124.94728       85.72858       62.84891
O        125.71196       86.47017       62.24918
H        124.39370       83.35210       64.91033
H        125.15761       83.60843       62.78984
H        126.59915       84.45390       63.44828
N        123.62964       86.05105       62.98270
C        123.00978       87.22157       62.37024
C        122.53952       88.16302       63.46305
O        121.81630       87.71741       64.33290
C        121.82001       86.76269       61.49637
C        122.24711       85.69775       60.47545
O        121.29416       87.87418       60.82261
H        123.02373       85.42949       63.54136
H        123.73092       87.75668       61.71341
H        121.03835       86.32145       62.15894
H        120.43845       87.58297       60.41152
H        122.62236       84.78870       60.99245
H        121.37471       85.39244       59.86027
H        123.04282       86.09129       59.80933
N        122.89265       89.48053       63.48085
C        122.50918       90.39438       64.56401
C        121.39576       91.36027       64.15604
O        120.97652       92.14681       64.99493
C        123.76587       91.09393       65.17373
C        124.53890       91.95840       64.14008
C        124.67406       90.02989       65.82206
C        125.70393       92.74851       64.74663
H        123.43595       89.85009       62.68810
H        122.04448       89.82376       65.39598
H        123.41323       91.76344       65.99027
H        123.83767       92.69325       63.69042
H        124.95176       91.32474       63.32816
H        125.08075       89.33363       65.05833
H        125.51727       90.49352       66.37151
H        124.09725       89.44159       66.56662
H        125.34153       93.42000       65.55297
H        126.48729       92.07586       65.15160
H        126.18135       93.36734       63.95743
N        120.81013       91.31095       62.92355
C        119.66503       92.14020       62.52957
C        118.35186       91.81998       63.27060
O        117.36672       92.46974       62.95063
C        119.42556       92.05638       60.99345
C        119.03425       90.65866       60.49974
O        120.57754       92.47334       60.30710
H        121.20723       90.67058       62.22548
H        119.91875       93.20346       62.73999
H        118.57777       92.72947       60.72041
H        120.57492       93.46680       60.31842
H        118.11578       90.29901       61.00517
H        118.84109       90.69044       59.40690
H        119.84412       89.93038       60.67551
N        118.24196       90.86620       64.25022
C        116.99996       90.53787       64.97513
C        116.01295       89.79520       64.06634
O        116.27760       89.68517       62.87851
C        116.40801       91.79551       65.68699
C        117.45156       92.43725       66.62844
O        115.21914       91.48028       66.37427
H        119.07822       90.33798       64.52511
H        117.26507       89.80556       65.76568
H        116.13012       92.56759       64.94545
H        115.39057       91.44425       67.34928
H        117.01564       93.33148       67.12226
H        117.76551       91.71419       67.41239
H        118.35071       92.76137       66.06489
N        114.88727       89.19203       64.57489
C        113.96506       88.39843       63.75312
C        113.86827       86.92935       64.18092
O        113.27351       86.16348       63.43241
C        112.55311       89.03494       63.72515
C        111.85089       89.06396       65.10148
C        110.37686       89.50216       65.02372
C        110.17932       90.94462       64.53345
N        108.75789       91.29424       64.51388
H        114.68680       89.27979       65.57805
H        114.33231       88.38394       62.70471
H        111.92476       88.44310       63.02312
H        112.63438       90.06632       63.32234
H        112.40114       89.72689       65.80139
H        111.84743       88.03743       65.52693
H        109.94141       89.41738       66.04389
H        109.82429       88.80433       64.35683
H        110.58679       91.05985       63.50685
H        110.71980       91.64204       65.21088
H        108.65017       92.27959       64.18114
H        108.24056       90.66057       63.86153
H        108.35154       91.21595       65.47457
N        114.35290       86.46473       65.37021
C        114.18018       85.08350       65.82082
C        113.00072       85.00577       66.76401
O        112.97734       85.71978       67.75691
C        115.45796       84.59322       66.52892
C        115.33982       83.19723       67.18011
C        115.04241       82.04099       66.25154
O        114.01935       81.39472       66.41047
O        115.95297       81.60972       65.35366
H        114.76980       87.12882       66.03775
H        113.99684       84.40570       64.95779
H        115.69313       85.30674       67.34672
H        116.29855       84.61779       65.82095
H        114.54506       83.24408       67.95615
H        116.28820       82.97115       67.71274
N        112.00207       84.10960       66.52808
C        110.86831       83.92284       67.40831
H        109.93046       84.08433       66.83862
H        110.87891       82.88221       67.79680
H        110.88406       84.61815       68.27331
H        112.05694       83.49898       65.69853
Ca       117.65054       82.89862       64.66962
O        117.91626       80.53980       62.07742
H        117.14725       79.91947       62.14024
H        117.80502       80.98443       61.19956
O        119.74650       83.04868       61.98718
H        120.15653       82.63023       61.18918
H        120.19785       83.92569       62.06728
O        116.02394       83.13747       62.17027
H        115.45165       83.68908       62.76077
H        116.83581       83.68623       62.02697

Ca 1.0



