%chk=apoCaM-CA-Ng.loop1.water5.frame671.chk
%nprocshared=20
%mem=10GB
%nosave
#b3lyp/svp scf=(tight,noincore,xqc) Test 
#IOP(5/87=12) Density=Current Pop=(MK,readradii) iop(6/33=2) iop(6/42=6)

apoCaM-CA-Ng.loop1.water5.frame671 

   0  1 
C        -15.10583       25.95480       79.13157
C        -16.51207       25.46144       79.32297
O        -17.34139       26.19423       79.84328
H        -14.39405       25.29337       79.66773
H        -14.85735       25.94827       78.04808
H        -14.99166       26.99282       79.51046
N        -16.85792       24.22193       78.87746
C        -18.22537       23.70045       78.92673
C        -18.76218       23.40376       80.36318
O        -17.90201       23.85574       81.36348
C        -18.35249       22.44687       78.03194
C        -17.44066       21.29789       78.39373
O        -16.59168       21.37089       79.43595
O        -17.45777       20.28527       77.71302
H        -16.12557       23.67213       78.40162
H        -18.87941       24.47240       78.46109
H        -18.10394       22.74488       76.98981
H        -19.40524       22.09248       78.04588
N        -20.13077       23.93526       80.51770
C        -20.66540       24.17970       81.88267
C        -21.16956       22.89889       82.55018
O        -21.20455       21.86732       81.89738
C        -21.77467       25.24798       81.75181
C        -21.16894       26.56136       81.20148
C        -22.17630       27.63227       80.75743
C        -23.01216       27.17860       79.54444
N        -23.71268       28.30768       78.93220
H        -20.80808       23.42065       79.90773
H        -19.86480       24.59863       82.52988
H        -22.26001       25.45760       82.72795
H        -22.54257       24.84728       81.05656
H        -20.53899       26.35346       80.31013
H        -20.50410       26.98963       81.98334
H        -21.56890       28.50975       80.44344
H        -22.83536       27.94963       81.59427
H        -23.74649       26.40490       79.85717
H        -22.34323       26.73331       78.77409
H        -23.01464       28.99490       78.56258
H        -24.28585       27.96048       78.12909
H        -24.33689       28.77676       79.62642
N        -21.48472       22.87330       83.88665
C        -21.74483       21.62240       84.61275
C        -22.96130       21.67290       85.56131
O        -22.78722       21.38225       86.73874
C        -20.47500       21.28714       85.43557
C        -19.24761       21.18102       84.58651
O        -18.22317       22.03094       84.79043
O        -19.16853       20.32608       83.71903
H        -21.37358       23.73868       84.42859
H        -21.92125       20.78950       83.89877
H        -20.60406       20.32531       85.97720
H        -20.31145       22.09450       86.18565
N        -24.23020       22.01191       85.19400
C        -24.61604       22.55845       83.91397
C        -24.67289       24.07231       83.99493
O        -24.94962       24.69347       82.97864
H        -24.94913       22.03692       85.93618
H        -25.59871       22.13390       83.61643
H        -23.88622       22.27989       83.12958
N        -24.34607       24.73571       85.14915
C        -24.13053       26.17285       85.22957
C        -22.66029       26.40971       85.52384
O        -21.98634       25.49063       85.97369
C        -25.02662       26.83839       86.30093
C        -24.75693       26.36566       87.71138
O        -24.30765       27.23625       88.63580
O        -24.96532       25.20721       88.03436
H        -24.12207       24.20123       85.99754
H        -24.36014       26.63636       84.24555
H        -26.09699       26.66005       86.06209
H        -24.84910       27.93509       86.26534
N        -22.06862       27.60361       85.26665
C        -20.64787       27.77436       85.51673
C        -20.17036       29.14533       85.13908
O        -20.68322       30.11747       85.67554
H        -22.62879       28.37364       84.86758
H        -20.08532       27.00663       84.93845
H        -20.44579       27.61616       86.59731
N        -19.16599       29.29485       84.22932
C        -18.64350       30.59426       83.82764
C        -17.16312       30.72030       84.16135
O        -16.53987       29.75868       84.59067
C        -18.90255       30.82015       82.30827
C        -18.15734       29.83044       81.39860
O        -20.27700       30.72120       82.03945
H        -18.75288       28.45049       83.80440
H        -19.16705       31.40426       84.37980
H        -18.54799       31.83422       82.01426
H        -20.69464       31.56248       82.36049
H        -17.06002       29.89640       81.55647
H        -18.48771       28.78619       81.57409
H        -18.36327       30.07497       80.33444
N        -16.53144       31.90165       83.92412
C        -15.08257       32.07626       83.99665
C        -14.59302       32.20000       85.44177
O        -13.45256       31.83619       85.69770
C        -14.65599       33.30036       83.12081
C        -15.16494       33.13304       81.65340
C        -13.12354       33.48450       83.11754
C        -15.06830       34.41779       80.82918
H        -17.10529       32.68145       83.57185
H        -14.60638       31.18271       83.53075
H        -15.13062       34.20504       83.56151
H        -16.23930       32.86910       81.62644
H        -14.62000       32.30564       81.14841
H        -12.73540       33.66264       84.13931
H        -12.62858       32.58155       82.69710
H        -12.82063       34.36338       82.51665
H        -15.66324       35.22021       81.31743
H        -14.02365       34.75891       80.70370
H        -15.49402       34.23879       79.81890
N        -15.37965       32.72302       86.42993
C        -14.93315       32.91001       87.81638
C        -15.03066       34.37847       88.23070
O        -15.46273       35.19602       87.42588
C        -15.71546       31.96436       88.76595
C        -17.23346       32.15443       88.71928
O        -15.42611       30.62985       88.43540
H        -16.33935       33.01444       86.19035
H        -13.85875       32.63983       87.91907
H        -15.40380       32.15399       89.81935
H        -14.60296       30.37853       88.93252
H        -17.71143       31.46461       89.44747
H        -17.50903       33.19578       88.98435
H        -17.63392       31.90884       87.71342
N        -14.61378       34.79008       89.46996
C        -14.62237       36.18974       89.90669
C        -13.22925       36.71025       90.26287
O        -13.11309       37.89358       90.53919
C        -15.56470       36.38342       91.12597
C        -15.04051       35.73230       92.41620
O        -16.83617       35.86204       90.83806
H        -14.26848       34.07731       90.13010
H        -15.00753       36.83052       89.08297
H        -15.64604       37.47437       91.35193
H        -17.34455       36.57541       90.37211
H        -15.75086       35.92467       93.24775
H        -14.91993       34.63688       92.29884
H        -14.06275       36.17137       92.71144
N        -12.13960       35.88439       90.31749
C        -10.81392       36.32690       90.74832
C         -9.85055       35.16383       90.58610
O        -10.09451       34.11545       91.16790
C        -10.81880       36.77959       92.23430
C         -9.51496       37.51052       92.60077
C         -9.46588       37.88407       94.08919
C         -8.25329       38.78058       94.38512
N         -8.15201       39.08245       95.81278
H        -12.24959       34.89982       90.04680
H        -10.50587       37.17976       90.10413
H        -10.98546       35.89951       92.89452
H        -11.64281       37.49578       92.42791
H         -9.46449       38.43640       91.98559
H         -8.62898       36.88150       92.36657
H         -9.40660       36.95033       94.69097
H        -10.38764       38.43551       94.37676
H         -8.36256       39.73209       93.81682
H         -7.31713       38.28045       94.05237
H         -9.03097       39.53450       96.15456
H         -7.97381       38.20307       96.35019
H         -7.35249       39.73890       95.96704
N         -8.74377       35.26579       89.80003
C         -7.87489       34.11974       89.55977
C         -8.63485       33.03684       88.79232
O         -8.75713       31.94895       89.33809
C         -6.55487       34.53097       88.87599
C         -5.69199       35.39348       89.81069
C         -4.40187       35.77675       89.14693
O         -3.54133       34.82445       88.73823
O         -4.12197       36.95339       88.98326
H         -8.52514       36.17159       89.35984
H         -7.57311       33.68598       90.54186
H         -6.73890       35.09557       87.94595
H         -5.98187       33.60937       88.62982
H         -5.45637       34.82214       90.73516
H         -6.24675       36.31207       90.10022
N         -9.21972       33.21010       87.56848
C         -9.19319       34.42728       86.78570
H         -8.16623       34.65394       86.44909
H         -9.80029       34.28986       85.86562
H         -9.62621       35.27398       87.35451
H         -9.74322       32.41592       87.16765
Ca       -17.15145       21.86566       82.17428
O        -14.51380       20.07704       81.42030
H        -14.15180       20.23418       80.51212
H        -13.90282       19.40781       81.81903
O        -14.70334       22.92931       83.00093
H        -14.69484       23.90276       82.82145
H        -14.00051       22.78710       83.68230
O        -15.99943       19.95648       84.53342
H        -16.16489       20.36412       85.42051
H        -15.43142       19.16905       84.72525
O        -17.30078       18.04904       81.76231
H        -18.06680       17.74404       81.21473
H        -17.02424       17.24195       82.26404
O        -19.34146       20.00406       80.45108
H        -19.09328       19.38949       79.71658
H        -20.20259       20.38926       80.15624

Ca 1.0



