%chk=apoCaM-CA-Ng.loop1.water4.frame291.chk
%nprocshared=20
%mem=10GB
%nosave
#b3lyp/svp scf=(tight,noincore,xqc) Test 
#IOP(5/87=12) Density=Current Pop=(MK,readradii) iop(6/33=2) iop(6/42=6)

apoCaM-CA-Ng.loop1.water4.frame291 

   0  1 
C         69.14960       55.82430       43.59064
C         68.08171       56.86770       43.74460
O         67.80830       57.60182       42.80586
H         69.95517       56.00441       44.33331
H         68.71439       54.81759       43.77093
H         69.58610       55.84634       42.57038
N         67.41533       56.96968       44.92458
C         66.33220       57.91939       45.16064
C         66.84073       59.34673       45.39468
O         66.02151       60.19630       45.69656
C         65.52194       57.49369       46.41481
C         64.89517       56.12584       46.29632
O         63.68197       56.00687       46.34081
O         65.65793       55.02162       46.18631
H         67.66535       56.30159       45.66967
H         65.62395       57.89790       44.30252
H         64.69754       58.22404       46.56422
H         66.17056       57.51518       47.31761
N         68.16004       59.69010       45.34802
C         68.66373       60.95820       45.88048
C         69.35072       61.82433       44.84009
O         70.11418       61.27834       44.05625
C         69.64355       60.62409       47.01462
C         68.87255       60.07407       48.22206
C         69.81630       59.65457       49.34265
C         69.01446       59.28096       50.59392
N         69.89728       58.79101       51.64876
H         68.86026       59.00072       45.04238
H         67.85865       61.54071       46.33456
H         70.17910       61.53795       47.34574
H         70.40555       59.89921       46.65102
H         68.25470       59.19620       47.93267
H         68.19211       60.87328       48.59092
H         70.50468       60.49056       49.59531
H         70.41588       58.78552       48.99318
H         68.26632       58.49459       50.34848
H         68.46818       60.18220       50.95548
H         70.62256       59.50897       51.87728
H         69.32924       58.59401       52.50376
H         70.36005       57.90645       51.33655
N         69.24280       63.19934       44.80469
C         68.44768       64.07158       45.68832
C         68.78318       63.86799       47.15922
O         67.92839       63.40734       47.90394
C         66.92737       63.97515       45.41065
C         66.57470       64.41089       44.02649
O         67.50865       64.88967       43.18456
O         65.42023       64.30916       43.64559
H         69.81601       63.68791       44.09847
H         68.68464       65.13324       45.45866
H         66.37362       64.63368       46.11375
H         66.54542       62.94874       45.54329
N         69.97427       64.24123       47.70395
C         71.01133       64.96398       46.97601
C         72.06354       65.54476       47.91186
O         72.05992       65.22621       49.09286
H         70.08080       64.07753       48.71632
H         70.53036       65.84194       46.50068
H         71.46808       64.32591       46.18838
N         72.96010       66.49038       47.50851
C         73.06971       67.02354       46.15650
C         72.29754       68.32329       46.03738
O         72.51058       69.23919       46.82020
C         74.54327       67.19394       45.72458
C         75.32699       68.21714       46.51230
O         75.58056       68.03851       47.82226
O         75.76946       69.20638       45.95051
H         73.53261       66.91999       48.24750
H         72.63985       66.29768       45.43362
H         74.53858       67.50653       44.65595
H         75.06363       66.21477       45.78588
N         71.37339       68.46052       45.04833
C         70.53933       69.63134       44.86918
C         69.55141       69.76134       45.99235
O         69.42092       70.83770       46.55829
H         71.24502       67.69154       44.37328
H         69.94198       69.48964       43.94274
H         71.15266       70.55081       44.74267
N         68.80668       68.68065       46.35715
C         67.74034       68.73276       47.34466
C         68.15938       68.00178       48.61212
O         69.19664       67.35229       48.62964
C         66.46244       68.11376       46.70893
C         66.05081       68.83526       45.42103
O         65.38416       68.15951       47.60224
H         68.99425       67.77338       45.90199
H         67.54303       69.78761       47.63726
H         66.70171       67.05190       46.45768
H         64.77197       67.41813       47.35023
H         66.86216       68.80256       44.66422
H         65.15994       68.33546       44.98367
H         65.79646       69.89348       45.64032
N         67.39371       68.10945       49.73416
C         67.67495       67.43508       51.00053
C         66.56550       66.42021       51.32275
O         66.66878       65.71880       52.31706
C         67.94347       68.51049       52.10887
C         68.47900       67.87255       53.41816
C         66.71810       69.40957       52.37863
C         69.02003       68.89698       54.42223
H         66.55522       68.70449       49.68188
H         68.60947       66.84028       50.90020
H         68.76006       69.15665       51.71349
H         69.32674       67.20000       53.16368
H         67.69054       67.27329       53.91769
H         66.96373       70.21568       53.09774
H         66.38570       69.93280       51.46161
H         65.87348       68.81346       52.78210
H         68.22536       69.57561       54.79062
H         69.43673       68.36529       55.30351
H         69.83199       69.49845       53.96013
N         65.50291       66.25173       50.47892
C         64.44014       65.27171       50.63233
C         64.46729       64.34376       49.42352
O         64.58253       64.82276       48.30401
C         63.08194       66.00805       50.76590
C         61.90987       65.04132       51.00505
O         62.82794       66.84444       49.66212
H         65.42613       66.83211       49.64135
H         64.57461       64.67455       51.56146
H         63.14217       66.65888       51.66591
H         62.54280       66.27671       48.90000
H         61.77452       64.35613       50.14167
H         62.09250       64.43351       51.91658
H         60.97102       65.61725       51.14735
N         64.34640       62.99547       49.58307
C         64.37878       62.03390       48.47286
C         63.31977       62.32717       47.39850
O         62.54249       63.25899       47.55549
C         64.24389       60.58552       49.02525
C         62.87216       60.31379       49.66691
O         65.26291       60.35609       49.96592
H         64.23482       62.64384       50.54540
H         65.37390       62.11601       47.98240
H         64.37534       59.87754       48.18091
H         65.35699       59.37205       50.06186
H         62.82864       59.26420       50.02708
H         62.68454       60.98265       50.53182
H         62.05849       60.45339       48.92467
N         63.22610       61.54618       46.27854
C         62.24367       61.75856       45.22100
C         62.88832       61.83683       43.82891
O         62.63872       62.81308       43.13626
C         61.09960       60.73474       45.36851
C         61.40639       59.25030       45.11416
C         60.19572       58.42081       45.58730
C         60.30179       56.93258       45.24260
N         59.17246       56.19367       45.81326
H         63.82677       60.72232       46.20321
H         61.72557       62.73016       45.38620
H         60.26350       61.02902       44.69638
H         60.73627       60.84261       46.41638
H         62.30086       58.91911       45.68376
H         61.59057       59.10084       44.02823
H         59.26320       58.81213       45.12457
H         60.11298       58.53131       46.69235
H         61.24667       56.51243       45.64355
H         60.30180       56.81575       44.13615
H         59.20777       56.24124       46.85823
H         58.26514       56.59278       45.47847
H         59.22916       55.19143       45.52193
N         63.74647       60.87710       43.36353
C         64.36574       60.89405       42.03020
C         64.08247       59.58048       41.33125
O         64.43322       58.53443       41.86071
C         65.89643       61.12701       42.13054
C         66.68991       60.86873       40.82105
C         66.25117       61.62098       39.58042
O         65.80773       60.99428       38.63172
O         66.46524       62.94355       39.43242
H         63.98802       60.09298       43.98648
H         63.96877       61.72825       41.41094
H         66.32089       60.43400       42.88648
H         66.07722       62.15710       42.48667
H         66.61268       59.78207       40.60102
H         67.76780       61.07420       40.99913
N         63.50460       59.57385       40.09739
C         63.28959       58.36929       39.32261
H         62.21166       58.27187       39.08253
H         63.86512       58.44124       38.37474
H         63.62106       57.45490       39.85776
H         63.23567       60.46817       39.66033
Ca        67.25715       64.19684       41.09345
O         69.80337       67.07732       41.20555
H         69.67411       67.93635       41.68084
H         70.11996       66.45232       41.90517
O         66.51004       65.96383       38.21824
H         65.79620       66.38630       37.67742
H         67.13514       65.58364       37.55099
O         66.69116       67.61122       41.40831
H         67.08227       68.51975       41.45447
H         65.73645       67.74072       41.63591
O         64.31359       65.40750       40.50670
H         64.65544       64.77169       41.18248
H         63.54050       64.93950       40.10374

Ca 1.0



