%chk=apoCaM-CA-Ng.loop2.water2.frame872.chk
%nprocshared=20
%mem=10GB
%nosave
#b3lyp/svp scf=(tight,noincore,xqc) Test 
#IOP(5/87=12) Density=Current Pop=(MK,readradii) iop(6/33=2) iop(6/42=6)

apoCaM-CA-Ng.loop2.water2.frame872 

   -2  1 
C         39.32911      109.78881       -4.50332
C         37.92789      109.30058       -4.70184
O         37.68744      108.55146       -5.63846
H         40.00191      109.37485       -5.28503
H         39.35306      110.89630       -4.55289
H         39.69517      109.45458       -3.50944
N         36.94841      109.66711       -3.82741
C         35.58310      109.16966       -3.91071
C         35.33439      108.29936       -2.68945
O         34.41719      108.54210       -1.91713
C         34.61273      110.36071       -4.06635
C         33.20089      109.92196       -4.34228
O         32.94626      109.26540       -5.33999
O         32.20513      110.27858       -3.50931
H         37.19173      110.29053       -3.04147
H         35.46364      108.51967       -4.80541
H         34.93990      110.98143       -4.92925
H         34.64774      110.99653       -3.15460
N         36.17262      107.24675       -2.46579
C         36.06106      106.32242       -1.34399
C         36.23278      107.04403       -0.00954
O         37.26451      107.67846        0.16376
C         37.14984      105.24481       -1.46312
H         36.93023      107.08941       -3.14888
H         35.08062      105.81993       -1.42567
H         37.07963      104.51693       -0.62873
H         37.03683      104.69547       -2.42178
H         38.16105      105.70786       -1.44145
N         35.29887      107.03289        0.99306
C         34.01618      106.32724        0.93631
C         33.04010      106.81133        2.00991
O         33.40937      107.58818        2.87924
C         34.20525      104.78746        1.01680
C         34.73030      104.32895        2.34817
O         34.08358      103.53918        3.01619
O         35.91049      104.77212        2.81519
H         35.51666      107.60429        1.82386
H         33.53452      106.60068       -0.02645
H         34.90166      104.42416        0.24204
H         33.22969      104.29028        0.82802
N         31.73208      106.43637        1.94279
C         30.69798      106.94704        2.82880
C         29.81252      105.82837        3.32158
O         28.67503      105.76840        2.87673
H         31.43195      105.83438        1.16046
H         30.06506      107.62158        2.21159
H         31.09533      107.55491        3.66752
N         30.21266      104.87315        4.20503
C         31.49033      104.84345        4.90488
C         31.52414      105.96177        5.94225
O         30.59878      106.04584        6.73848
C         31.63462      103.46200        5.59226
C         32.99554      103.16934        6.16406
N         33.21294      101.99924        6.80390
O         33.91097      103.96360        6.03661
H         29.53783      104.11601        4.40338
H         32.31471      104.93186        4.16904
H         31.44908      102.66875        4.83542
H         30.86987      103.36508        6.39335
H         32.45644      101.30916        6.91334
H         34.13770      101.78301        7.19520
N         32.56929      106.83457        6.01574
C         32.63517      107.93285        6.97579
C         33.61480      107.67689        8.10754
O         33.78422      108.55940        8.93666
H         33.37186      106.69927        5.38687
H         31.64666      108.11094        7.45149
H         32.90815      108.86027        6.42832
N         34.23763      106.47380        8.24986
C         35.09630      106.10617        9.36978
C         36.46815      105.67338        8.86845
O         36.72659      105.72733        7.67343
C         34.40140      104.98416       10.19353
C         33.12678      105.49493       10.88758
O         34.13783      103.85269        9.39832
H         34.05771      105.74292        7.55817
H         35.26139      106.96822       10.05309
H         35.05860      104.65750       11.02357
H         33.28522      104.00527        8.91290
H         32.37737      105.84896       10.14910
H         32.67542      104.68016       11.49267
H         33.38007      106.33527       11.56966
N         37.40213      105.22271        9.75201
C         38.74991      104.80583        9.39048
C         38.83661      103.30031        9.55456
O         38.58752      102.79685       10.64219
C         39.77063      105.56690       10.28813
C         41.22938      105.05550       10.16514
C         39.69116      107.08242       10.02556
C         41.86626      105.23024        8.78712
H         37.14938      105.15288       10.74857
H         38.96649      105.04738        8.32682
H         39.48284      105.39453       11.35001
H         41.26125      103.97885       10.43867
H         41.85972      105.59382       10.90673
H         39.94274      107.31767        8.97000
H         38.66712      107.46330       10.22169
H         40.39109      107.62764       10.69314
H         41.94248      106.30040        8.51239
H         42.89464      104.81427        8.81430
H         41.28600      104.69589        8.01132
N         39.18446      102.52024        8.48948
C         39.25107      101.06433        8.52574
C         40.68375      100.56392        8.36645
O         40.88214       99.35877        8.38799
C         38.33352      100.47517        7.43691
C         36.90365      100.90077        7.62532
O         35.95089       99.97714        7.85503
O         36.59696      102.08079        7.55962
H         39.41605      102.97874        7.59530
H         38.89776      100.68133        9.50957
H         38.37881       99.36518        7.48415
H         38.67649      100.79463        6.42938
N         41.73757      101.43340        8.29845
C         43.13405      101.02695        8.36508
C         43.95990      101.72184        7.27474
O         43.95046      102.94339        7.25367
C         43.65443      101.46790        9.74843
C         45.12419      101.19752        9.92134
C         46.01845      102.27462       10.03248
C         45.61670       99.88366        9.95825
C         47.38712      102.04121       10.16720
C         46.98837       99.65377       10.09721
C         47.87285      100.73187       10.19901
H         41.56040      102.44224        8.32680
H         43.21747       99.92650        8.30642
H         43.08313      100.95743       10.55490
H         43.46293      102.55832        9.85662
H         45.65723      103.29565       10.00137
H         44.94078       99.04108        9.87817
H         48.06922      102.87756       10.24329
H         47.36583       98.64024       10.12332
H         48.93453      100.55405       10.30237
N         44.75872      101.04297        6.38196
C         45.68830      101.69531        5.45456
C         45.10188      102.64751        4.42062
O         45.87487      103.17790        3.63334
C         46.36062      100.52319        4.73170
C         46.37533       99.46619        5.80711
C         44.97277       99.60858        6.38755
H         46.43358      102.24479        6.07346
H         45.68782      100.14875        3.92534
H         47.35027      100.76627        4.28777
H         46.63257       98.44261        5.46275
H         47.11388       99.78156        6.58145
H         44.20896       99.13108        5.73515
H         44.99012       99.14305        7.39069
N         43.76870      102.92023        4.34550
C         43.18353      103.81419        3.34715
C         43.70722      105.25099        3.38644
O         43.34110      106.00659        2.49634
C         41.64543      103.82886        3.49564
C         41.19123      104.45574        4.82980
C         39.70748      104.38397        4.96384
O         39.09749      103.18392        4.97405
O         39.05001      105.40555        5.07975
H         43.13120      102.43056        4.98394
H         43.43314      103.39371        2.34763
H         41.27693      102.78101        3.42653
H         41.19314      104.40107        2.65558
H         41.51641      105.51789        4.88016
H         41.63104      103.91838        5.69365
N         44.53404      105.71275        4.37069
C         45.03215      107.07413        4.41342
H         46.14129      107.06099        4.37189
H         44.66104      107.69326        3.56946
H         44.71218      107.55287        5.36213
H         44.82710      105.09565        5.13890
Ca        36.47728      104.14194        4.90529
O         36.57415      101.29068        4.01236
H         37.44035      101.21149        3.53927
H         36.53143      100.48862        4.59084
O         36.05412      107.25285        5.14931
H         36.94523      107.35214        4.73087
H         35.51671      106.78086        4.46627

Ca 1.0



