%chk=apoCaM-CA-Ng.loop1.water2.frame1297.chk
%nprocshared=20
%mem=10GB
%nosave
#b3lyp/svp scf=(tight,noincore,xqc) Test 
#IOP(5/87=12) Density=Current Pop=(MK,readradii) iop(6/33=2) iop(6/42=6)

apoCaM-CA-Ng.loop1.water2.frame1297 

   0  1 
C         69.82514       26.70550       84.82490
C         69.46132       26.20959       86.19361
O         68.40824       26.58031       86.69110
H         70.84338       26.37127       84.53369
H         69.09298       26.31530       84.09078
H         69.81287       27.81709       84.80454
N         70.30253       25.36999       86.86515
C         70.06586       24.87393       88.22286
C         70.68612       25.81515       89.25378
O         71.42126       25.38654       90.13258
C         70.57469       23.41625       88.35945
C         72.05575       23.22323       88.09305
O         72.57721       21.98488       88.15543
O         72.79021       24.16145       87.82112
H         71.14764       25.06536       86.36685
H         68.96989       24.85620       88.41357
H         70.01246       22.78239       87.64203
H         70.35633       23.04792       89.38571
N         70.40288       27.13944       89.18664
C         70.98468       28.17458       90.02453
C         70.07611       28.57233       91.16924
O         70.59791       28.62736       92.27521
C         71.40064       29.38858       89.17996
C         72.53217       29.00129       88.22086
C         72.99883       30.19217       87.38573
C         74.14206       29.76086       86.45781
N         74.41876       30.78427       85.45365
H         69.82525       27.44461       88.40658
H         71.92176       27.79708       90.49662
H         71.77968       30.18644       89.85502
H         70.52736       29.78938       88.61899
H         72.17431       28.20280       87.53278
H         73.39124       28.60691       88.80739
H         73.34611       31.02529       88.03884
H         72.13574       30.54708       86.78369
H         73.85847       28.82476       85.92914
H         75.05592       29.55552       87.06234
H         74.71497       31.67799       85.90697
H         75.17907       30.44208       84.82291
H         73.55952       30.94437       84.87790
N         68.73481       28.81923       91.09211
C         67.84474       28.69464       89.92939
C         67.11436       27.36203       89.98520
O         67.26313       26.62567       90.95190
C         66.87251       29.88504       89.81244
C         66.43560       30.36015       91.15009
O         65.84460       29.51788       92.01388
O         66.75150       31.48247       91.50423
H         68.28772       28.97603       92.00761
H         68.39255       28.70436       88.98528
H         65.99276       29.63051       89.18009
H         67.39478       30.73423       89.32269
N         66.37399       26.94822       88.91405
C         65.82416       25.60624       88.80645
C         64.79300       25.27898       89.85255
O         64.36177       26.15483       90.58931
H         66.28395       27.56841       88.09563
H         66.66405       24.88813       88.91043
H         65.36861       25.45676       87.80394
N         64.40969       23.97905       90.00885
C         63.50901       23.53360       91.06353
C         62.48549       22.53671       90.52374
O         62.85251       21.73497       89.67565
C         64.30873       22.81475       92.17157
C         65.48359       23.59317       92.69558
O         65.37560       24.90044       92.97882
O         66.54251       23.02270       92.90438
H         64.86081       23.26486       89.41601
H         63.01190       24.40792       91.53640
H         64.68695       21.83146       91.81907
H         63.61827       22.62480       93.01982
N         61.24111       22.37926       91.06345
C         60.69504       23.21474       92.11592
C         60.19206       24.53010       91.57796
O         60.09573       24.68700       90.36887
H         60.66644       21.58508       90.73954
H         61.43442       23.34017       92.93193
H         59.80615       22.71433       92.55755
N         59.75025       25.48155       92.44943
C         59.06930       26.71418       92.05194
C         59.93778       27.79456       91.38945
O         59.54694       28.94479       91.49254
C         58.20989       27.30209       93.22674
C         58.98912       27.64119       94.50993
O         57.18111       26.40439       93.54958
H         59.79312       25.23903       93.44821
H         58.31842       26.44324       91.27753
H         57.74317       28.24402       92.85232
H         56.38263       26.95386       93.77658
H         58.29814       28.09425       95.25299
H         59.42286       26.73789       94.98543
H         59.79169       28.37486       94.31180
N         60.97346       27.54095       90.53248
C         61.54247       28.61245       89.71885
C         62.39570       29.51647       90.57101
O         63.35758       29.05184       91.16090
C         62.31116       28.10483       88.46773
C         61.51106       27.04084       87.66640
C         62.65579       29.30787       87.55764
C         60.06243       27.43092       87.35262
H         61.29791       26.58941       90.36911
H         60.68937       29.19159       89.29706
H         63.26808       27.62593       88.76255
H         61.48200       26.08377       88.22818
H         62.05514       26.82740       86.72180
H         63.14925       28.96839       86.62316
H         61.74411       29.87978       87.27923
H         63.34874       30.00705       88.07152
H         60.00926       28.40807       86.83427
H         59.60166       26.65566       86.70764
H         59.46247       27.48159       88.28682
N         62.06073       30.82690       90.69169
C         62.75919       31.79154       91.52912
C         61.90201       32.19735       92.72871
O         62.33063       33.04349       93.49934
C         63.16072       33.04381       90.70225
C         61.99110       33.65603       89.92152
O         64.17394       32.72058       89.78893
H         61.21414       31.14717       90.20115
H         63.67804       31.34413       91.93483
H         63.53488       33.82733       91.40555
H         65.02683       32.75768       90.29216
H         61.11314       33.82479       90.57949
H         62.29990       34.62258       89.47402
H         61.69647       32.98849       89.08304
N         60.67888       31.63932       92.94434
C         59.75812       32.02842       94.00384
C         60.35066       31.78471       95.37665
O         60.60256       30.64279       95.73809
C         58.40788       31.29860       93.79180
C         57.45984       31.37078       94.98505
O         57.76200       31.85173       92.67154
H         60.36189       30.92023       92.29739
H         59.55857       33.11440       93.90117
H         58.58747       30.21770       93.63360
H         58.09171       31.37688       91.86554
H         56.50531       30.86905       94.71802
H         57.89094       30.82140       95.85007
H         57.26379       32.42246       95.27196
N         60.60547       32.86435       96.18192
C         61.24865       32.83510       97.49259
C         62.33931       31.78181       97.52220
O         62.31760       30.88145       98.35017
C         60.20572       32.66723       98.61240
C         59.12276       33.76965       98.58508
C         58.29131       33.77508       99.87796
C         57.31837       32.59375      100.02482
N         56.84269       32.50182      101.40767
H         60.41223       33.80264       95.80161
H         61.73786       33.82493       97.64230
H         60.76193       32.74294       99.57351
H         59.73229       31.66605       98.54975
H         58.47183       33.68221       97.68597
H         59.64048       34.75215       98.53962
H         57.68632       34.70784       99.92626
H         59.00372       33.79397      100.72970
H         57.79566       31.62736       99.76126
H         56.46138       32.75203       99.33076
H         56.03016       31.84694      101.46090
H         57.61409       32.12303      102.00635
H         56.55537       33.43843      101.77378
N         63.24735       31.77744       96.51435
C         64.06825       30.62360       96.19474
C         64.49494       30.73390       94.74661
O         64.06626       29.87727       93.98739
C         65.20710       30.34666       97.19699
C         66.05090       29.13883       96.75202
C         65.23483       27.87640       96.74839
O         64.78916       27.46055       97.80336
O         64.99930       27.14930       95.64332
H         63.18919       32.54437       95.82705
H         63.39819       29.73159       96.23233
H         64.77506       30.14767       98.20133
H         65.87830       31.20827       97.31819
H         66.88829       28.99733       97.46856
H         66.49793       29.33773       95.75425
N         65.22128       31.76216       94.21864
C         65.81899       32.88836       94.89593
H         66.84074       33.04400       94.48446
H         65.22256       33.79743       94.68096
H         65.90697       32.76461       95.97795
H         65.31133       31.79231       93.20740
Ca        65.12814       27.08248       93.41123
O         67.74447       27.16075       94.31805
H         68.15714       26.48904       93.72035
H         67.52808       26.65744       95.14261
O         62.42344       26.90478       93.76058
H         61.82600       27.56716       94.18203
H         62.13320       26.03029       94.12014

Ca 1.0



