%chk=apoCaM-CA-Ng.loop1.water3.frame173.chk
%nprocshared=20
%mem=10GB
%nosave
#b3lyp/svp scf=(tight,noincore,xqc) Test 
#IOP(5/87=12) Density=Current Pop=(MK,readradii) iop(6/33=2) iop(6/42=6)

apoCaM-CA-Ng.loop1.water3.frame173 

   0  1 
C         87.53995       33.58489       28.83197
C         88.23010       33.58403       27.49750
O         88.28708       32.54102       26.86267
H         86.47987       33.28153       28.70763
H         88.04728       32.86791       29.51150
H         87.56699       34.58995       29.30424
N         88.78666       34.72737       27.00600
C         89.47853       34.80168       25.71834
C         90.80762       34.03492       25.68384
O         91.45182       34.06166       24.64520
C         89.69773       36.28200       25.32301
C         90.59440       37.02949       26.27045
O         90.12786       38.09855       26.94282
O         91.75319       36.68458       26.41980
H         88.67412       35.59204       27.55762
H         88.80801       34.37559       24.93867
H         88.70699       36.78632       25.29021
H         90.13273       36.33800       24.30136
N         91.27647       33.32649       26.75382
C         92.53585       32.58971       26.76833
C         92.23748       31.10091       26.68969
O         91.42232       30.64781       27.48189
C         93.29252       32.87383       28.08691
C         93.75712       34.32783       28.28023
C         94.86282       34.73216       27.28792
C         95.50548       36.09206       27.61522
N         94.57619       37.21010       27.46112
H         90.71119       33.26308       27.60903
H         93.17884       32.88890       25.93445
H         94.18743       32.21682       28.15255
H         92.62843       32.60630       28.93878
H         94.18462       34.39250       29.30479
H         92.88769       35.01439       28.22533
H         94.47624       34.74334       26.24727
H         95.67464       33.97505       27.35354
H         96.36157       36.24626       26.92155
H         95.90805       36.07713       28.65244
H         94.23104       37.24876       26.47527
H         93.77737       37.12473       28.12840
H         95.08185       38.10117       27.66910
N         92.85080       30.22722       25.82899
C         93.92305       30.49803       24.86856
C         95.12641       31.14635       25.55292
O         95.48088       32.26187       25.19640
C         93.43690       31.29237       23.62844
C         92.31305       30.62563       22.88222
O         91.87057       31.14974       21.87269
O         91.77788       29.46804       23.31621
H         92.57186       29.23585       25.90820
H         94.25620       29.52179       24.46331
H         94.29511       31.38941       22.92805
H         93.11018       32.31074       23.89264
N         95.81868       30.54062       26.56022
C         95.59095       29.16652       26.98776
C         96.35853       28.80617       28.24925
O         96.93377       29.68404       28.87684
H         96.57306       31.08732       27.00335
H         95.87468       28.50097       26.14995
H         94.52475       29.00703       27.23585
N         96.36872       27.53699       28.75051
C         95.81173       26.37270       28.06291
C         96.67913       25.98354       26.86196
O         97.69873       26.61697       26.62072
C         95.66329       25.17628       29.04133
C         96.96810       24.58556       29.51929
O         97.23401       23.42111       29.26709
O         97.83439       25.31373       30.24799
H         96.80312       27.40784       29.67546
H         94.78017       26.61858       27.72753
H         95.08427       24.37407       28.53502
H         95.06091       25.49356       29.91978
N         96.35443       24.90732       26.09080
C         97.19091       24.42153       25.00192
C         97.15170       25.26507       23.74280
O         97.78564       24.86324       22.77634
H         95.51844       24.35404       26.32804
H         96.81450       23.41892       24.70318
H         98.23501       24.29220       25.36086
N         96.40047       26.39725       23.64197
C         96.20473       27.12692       22.39421
C         96.71071       28.54833       22.52296
O         96.44389       29.18710       23.52915
C         94.70134       27.12286       22.04581
C         94.17228       25.69303       21.87187
O         94.50385       27.82823       20.85159
H         95.87549       26.73391       24.46126
H         96.73536       26.64088       21.54445
H         94.14296       27.62206       22.87235
H         93.53373       28.02805       20.80825
H         93.09506       25.72082       21.60674
H         94.72355       25.17287       21.05937
H         94.27987       25.11366       22.81254
N         97.40964       29.12988       21.50749
C         97.88401       30.50920       21.55045
C         97.15012       31.40699       20.55677
O         97.46639       32.58644       20.51727
C         99.44168       30.55697       21.41625
C        100.04361       29.92318       20.13097
C        100.07054       29.86352       22.63927
C         99.67153       30.62803       18.82850
H         97.58558       28.58079       20.65177
H         97.64627       30.97035       22.53555
H         99.76363       31.62149       21.45932
H         99.77777       28.84759       20.05807
H        101.15220       29.98331       20.20808
H         99.71648       30.33848       23.57923
H         99.80789       28.78414       22.66499
H        101.17754       29.95514       22.61265
H         99.96197       31.69920       18.87481
H        100.22022       30.15166       17.98829
H         98.59232       30.53647       18.60799
N         96.14232       30.94702       19.74465
C         95.43734       31.82743       18.80818
C         94.65716       32.91504       19.53217
O         94.54553       32.86622       20.75311
C         94.47640       31.02764       17.87996
C         93.25627       30.46127       18.61885
O         95.16745       29.97056       17.26634
H         95.88944       29.95163       19.77078
H         96.20949       32.30209       18.16160
H         94.06580       31.70299       17.09369
H         95.71881       30.36727       16.54297
H         92.63580       31.27706       19.04687
H         92.61762       29.88795       17.91456
H         93.56876       29.79581       19.43961
N         94.08754       33.93704       18.83609
C         93.31635       35.00026       19.47295
C         92.06667       35.35213       18.67825
O         91.87627       34.84257       17.57861
C         94.21643       36.24522       19.68872
C         94.78688       36.80423       18.38050
O         95.28760       35.91313       20.53368
H         94.26568       33.99408       17.81929
H         92.96867       34.66361       20.47596
H         93.62553       37.06367       20.16030
H         94.92200       35.86627       21.45621
H         95.40836       37.69827       18.59875
H         95.43257       36.05387       17.87724
H         93.97117       37.10447       17.69028
N         91.17550       36.25000       19.18563
C         90.00156       36.73909       18.46833
C         88.70416       36.36709       19.17620
O         87.69475       37.02563       18.96801
C         90.14899       38.25564       18.19791
C         90.29236       39.12467       19.46127
C         90.54247       40.58912       19.08072
C         90.77062       41.45770       20.32486
N         91.06980       42.83879       19.94731
H         91.34820       36.61737       20.13353
H         89.93497       36.26592       17.46361
H         89.28090       38.61316       17.60127
H         91.06207       38.39159       17.57668
H         91.16586       38.78606       20.05438
H         89.37796       39.04255       20.08813
H         89.67723       40.98110       18.50285
H         91.45228       40.64297       18.44262
H         91.62640       41.05075       20.90927
H         89.86366       41.43571       20.96869
H         91.93770       42.87066       19.36367
H         90.27022       43.24795       19.41185
H         91.22646       43.40489       20.81222
N         88.62742       35.21562       19.90176
C         87.38049       34.69198       20.45298
C         86.84339       35.58043       21.55640
O         87.53391       35.79384       22.54352
C         87.59126       33.26022       20.98995
C         87.94014       32.28996       19.84715
C         88.17895       30.90346       20.35965
O         89.25286       30.35924       20.16195
O         87.20752       30.24440       21.01952
H         89.48339       34.65377       20.01190
H         86.62603       34.61958       19.63759
H         86.64993       32.90695       21.46774
H         88.39616       33.26201       21.75892
H         88.85087       32.62994       19.31036
H         87.10178       32.26170       19.11807
N         85.58661       36.10233       21.45958
C         84.96956       36.91337       22.48980
H         84.04529       36.40917       22.84500
H         85.63639       37.07193       23.36276
H         84.69509       37.90201       22.06706
H         85.01981       35.90118       20.62192
Ca        90.00616       28.54408       22.27048
O         91.27891       27.44926       19.54625
H         90.53048       26.88983       19.87328
H         90.84058       28.21677       19.10039
O         89.04559       31.18693       24.05844
H         89.71834       31.80181       23.67243
H         89.43584       30.90585       24.92393
O         90.55999       25.62879       22.68921
H         90.78852       26.02758       23.56646
H         89.62345       25.32413       22.79023

Ca 1.0



