%chk=apoCaM-CA-Ng.loop1.water3.frame1246.chk
%nprocshared=20
%mem=10GB
%nosave
#b3lyp/svp scf=(tight,noincore,xqc) Test 
#IOP(5/87=12) Density=Current Pop=(MK,readradii) iop(6/33=2) iop(6/42=6)

apoCaM-CA-Ng.loop1.water3.frame1246 

   0  1 
C         52.92601       28.49249       42.25930
C         51.78619       29.21888       41.61460
O         51.44353       28.89967       40.48417
H         53.72835       29.21541       42.51989
H         52.56960       27.98702       43.17954
H         53.34783       27.73214       41.56690
N         51.17719       30.25008       42.26883
C         50.11005       31.04491       41.67063
C         50.66132       32.39347       41.26710
O         50.12538       33.43289       41.62763
C         48.86596       31.10944       42.58714
C         49.06446       31.78806       43.92380
O         48.02290       31.87979       44.77136
O         50.13949       32.26748       44.24891
H         51.53989       30.51853       43.19511
H         49.77864       30.57396       40.72095
H         48.51506       30.07186       42.77150
H         48.05927       31.65224       42.04733
N         51.76049       32.42134       40.46789
C         52.34366       33.63911       39.93379
C         51.32008       34.33855       39.05367
O         51.04838       35.49833       39.33052
C         53.69921       33.34512       39.23915
C         54.70513       32.82448       40.29029
C         56.07240       32.46079       39.70802
C         56.99814       31.97044       40.83583
N         58.30800       31.57808       40.32141
H         52.18848       31.52132       40.20685
H         52.58944       34.32670       40.77571
H         54.10281       34.28350       38.80009
H         53.59098       32.60579       38.42098
H         54.30358       31.91458       40.78396
H         54.84183       33.60844       41.06794
H         56.52244       33.34929       39.21494
H         55.94646       31.65279       38.95444
H         56.53450       31.09637       41.34712
H         57.12792       32.78174       41.58726
H         58.20420       30.78764       39.64469
H         58.76973       32.39117       39.85385
H         58.90478       31.26200       41.12032
N         50.61852       33.73734       38.04561
C         50.76121       32.36125       37.56803
C         49.53446       31.52356       37.91027
O         48.59919       32.02575       38.51533
C         51.08107       32.38714       36.06185
C         50.07586       33.18491       35.28286
O         48.78732       32.80213       35.22987
O         50.42401       34.21772       34.73493
H         49.88892       34.31110       37.59320
H         51.59750       31.84347       38.05761
H         51.15249       31.36178       35.64757
H         52.07835       32.86398       35.93834
N         49.52402       30.19090       37.62219
C         48.46503       29.27915       38.02878
C         47.15198       29.49222       37.31438
O         47.04448       30.37735       36.48175
H         50.34606       29.77815       37.15778
H         48.31538       29.34380       39.12732
H         48.78819       28.24300       37.78674
N         46.12483       28.62804       37.56961
C         44.83453       28.61259       36.86476
C         44.13422       27.24366       37.07031
O         44.48609       26.53664       38.00446
C         43.90889       29.77298       37.33312
C         44.45723       31.15038       37.04489
O         44.68538       31.91306       37.96863
O         44.71588       31.54181       35.77424
H         46.33914       27.87506       38.23960
H         45.06270       28.71082       35.78967
H         43.73512       29.65777       38.42608
H         42.91977       29.71682       36.84617
N         43.15187       26.75044       36.25105
C         42.62857       27.40814       35.06988
C         43.66033       27.57401       33.98419
O         44.73649       26.99692       34.04899
H         42.74273       25.83132       36.48451
H         42.21569       28.39026       35.35370
H         41.78557       26.82190       34.64317
N         43.38491       28.41715       32.95837
C         44.32238       28.74619       31.89305
C         45.63334       29.29560       32.44969
O         45.61794       30.17558       33.29588
C         43.65854       29.74794       30.91724
C         44.58885       30.18346       29.78437
O         43.21799       30.88718       31.61200
H         42.46165       28.87907       32.96323
H         44.54154       27.82648       31.30664
H         42.79069       29.21447       30.45698
H         42.27207       31.04684       31.35438
H         45.45475       30.75558       30.18149
H         44.96463       29.30281       29.22264
H         44.02557       30.84142       29.09159
N         46.80846       28.83353       31.93039
C         48.16227       29.28117       32.24763
C         48.32224       30.77404       32.03670
O         47.81355       31.54939       32.83382
C         48.64771       28.87160       33.66793
C         48.35581       27.39166       34.01154
C         50.15228       29.18161       33.82909
C         48.97109       26.36678       33.05614
H         46.74668       28.12472       31.18386
H         48.82836       28.75887       31.52532
H         48.09838       29.47376       34.41829
H         47.25907       27.24004       34.01701
H         48.71929       27.18421       35.04230
H         50.35356       30.26186       33.67653
H         50.50100       28.91094       34.84709
H         50.76003       28.62282       33.08676
H         50.07722       26.43517       33.04836
H         48.69020       25.34661       33.39113
H         48.58385       26.50368       32.02597
N         49.05786       31.24611       30.99456
C         49.35839       32.65974       30.82246
C         48.65684       33.27013       29.62731
O         48.86022       34.45654       29.41310
C         50.89233       32.88666       30.80557
C         51.61039       32.21599       29.63209
O         51.45156       32.40247       31.99790
H         49.43033       30.57574       30.30727
H         48.97544       33.23717       31.68591
H         51.09671       33.98113       30.71909
H         51.29152       33.09496       32.68751
H         51.21846       32.59141       28.66454
H         52.69522       32.44993       29.68719
H         51.50416       31.11296       29.67116
N         47.78634       32.57133       28.83305
C         47.04414       33.22561       27.75702
C         46.10248       34.24886       28.38792
O         45.07872       33.85157       28.92413
C         46.27221       32.18316       26.90245
C         45.57289       32.81745       25.69646
O         47.16983       31.20478       26.44264
H         47.63218       31.56694       29.00421
H         47.78658       33.72560       27.09556
H         45.50661       31.70371       27.55135
H         46.64046       30.37911       26.28074
H         45.02670       32.03284       25.12899
H         44.83964       33.58555       26.01801
H         46.32157       33.28367       25.02166
N         46.45823       35.56850       28.45242
C         45.72628       36.62273       29.16142
C         45.57991       36.32799       30.64906
O         45.02093       35.30680       31.01214
C         44.35887       36.92293       28.53877
C         44.49208       37.27729       27.05422
C         43.17069       37.81590       26.50675
C         43.27317       38.07673       25.00108
N         42.03215       38.65483       24.49008
H         47.34190       35.85152       28.00263
H         46.31653       37.56188       29.05674
H         43.93939       37.79894       29.08450
H         43.65822       36.06937       28.65924
H         44.80161       36.36724       26.49508
H         45.26939       38.06243       26.91730
H         42.92805       38.76608       27.03393
H         42.35601       37.08373       26.69482
H         43.47659       37.11426       24.48024
H         44.11450       38.77483       24.79200
H         41.86835       39.58925       24.93114
H         42.11356       38.77792       23.45531
H         41.22605       38.02111       24.69613
N         46.02254       37.21396       31.58207
C         45.95389       36.93850       33.01640
C         46.88409       35.74477       33.37119
O         46.95275       35.47799       34.75096
C         46.23466       38.22214       33.84189
C         45.07976       39.22688       33.69666
C         45.34751       40.48673       34.46857
O         45.37304       41.56323       33.89359
O         45.54467       40.43901       35.80016
H         46.41893       38.11148       31.26209
H         44.92359       36.62386       33.29337
H         47.17886       38.71065       33.53409
H         46.31548       37.96032       34.91892
H         44.14546       38.76693       34.08687
H         44.92456       39.47895       32.62557
N         48.20866       35.71771       32.72089
C         49.00680       36.93987       32.83094
H         50.03860       36.74083       32.47010
H         48.60382       37.72227       32.15629
H         49.06255       37.29845       33.88058
H         48.74746       34.93353       33.14225
Ca        45.81710       33.48271       35.17782
O         43.28182       34.87806       35.30740
H         44.05427       35.45614       35.53215
H         43.28124       34.18029       36.01065
O         46.59848       34.29912       37.99322
H         46.92410       33.49631       37.51629
H         46.07366       33.93748       38.75015
O         45.14019       32.92697       32.54087
H         44.19351       33.13765       32.34441
H         45.57506       32.84045       31.65653

Ca 1.0



