%chk=apoCaM-CA-Ng.loop2.water4.frame1499.chk
%nprocshared=20
%mem=10GB
%nosave
#b3lyp/svp scf=(tight,noincore,xqc) Test 
#IOP(5/87=12) Density=Current Pop=(MK,readradii) iop(6/33=2) iop(6/42=6)

apoCaM-CA-Ng.loop2.water4.frame1499 

   -2  1 
C         68.00578      110.12452       44.19308
C         68.27498      110.41580       45.63954
O         67.39620      110.95351       46.29771
H         66.98132      110.45538       43.91806
H         68.73632      110.65657       43.55210
H         68.07284      109.02918       44.01991
N         69.43521      110.05948       46.25592
C         70.55488      109.36808       45.61514
C         71.91935      109.99889       45.94923
O         72.90754      109.51088       45.41693
C         70.50429      107.85965       45.97383
C         70.17321      107.64652       47.42161
O         69.20905      106.97629       47.75203
O         70.86948      108.32313       48.33823
H         69.48475      110.21683       47.27461
H         70.47993      109.42216       44.50889
H         71.46589      107.37229       45.70009
H         69.70468      107.36967       45.37645
N         72.07174      111.09210       46.76160
C         73.37122      111.74306       46.96969
C         74.39771      110.89367       47.72130
O         75.55141      111.29879       47.76572
C         73.18368      113.06037       47.73847
H         71.24123      111.52801       47.18496
H         73.78419      111.99030       45.96623
H         74.15045      113.59774       47.84688
H         72.47813      113.72523       47.19665
H         72.77408      112.85851       48.75280
N         74.04925      109.76007       48.39384
C         74.97556      108.97555       49.21365
C         75.00316      107.51086       48.76099
O         76.08552      106.98017       48.55396
C         74.63704      109.18637       50.71716
C         73.25397      108.75205       51.09528
O         72.28616      109.64184       51.36122
O         72.95295      107.57668       51.05650
H         73.06137      109.48581       48.39524
H         76.01436      109.36509       49.11635
H         74.72254      110.27733       50.91554
H         75.37551      108.66690       51.36354
N         73.85129      106.81426       48.52725
C         73.79926      105.43996       48.05286
C         74.00551      104.40144       49.14166
O         73.95785      103.22377       48.81719
H         72.95585      107.29730       48.61259
H         74.51807      105.30317       47.21549
H         72.78240      105.25184       47.64307
N         74.21777      104.74530       50.44551
C         74.44857      103.78924       51.52326
C         73.41310      103.87561       52.65833
O         73.56191      103.12231       53.61070
C         75.89487      103.97667       52.01863
C         76.16302      105.37161       52.52976
N         77.03157      106.18464       51.88271
O         75.58449      105.77477       53.52726
H         74.27567      105.73407       50.69492
H         74.38526      102.74754       51.13760
H         76.56313      103.76787       51.15304
H         76.13937      103.23343       52.80695
H         77.51713      105.87101       51.02918
H         77.20950      107.13945       52.22612
N         72.30798      104.68462       52.60271
C         71.21704      104.62646       53.58063
C         70.66852      106.00060       53.96320
O         70.43430      106.77252       53.04436
H         72.15760      105.26370       51.76687
H         71.45502      103.96598       54.43128
H         70.37084      104.13497       53.05632
N         70.29822      106.38414       55.23119
C         70.44411      105.60818       56.46360
C         69.12874      104.97868       56.93020
O         69.19619      104.16760       57.84474
C         70.99425      106.50703       57.60687
C         72.36871      107.09906       57.29413
O         70.08830      107.55541       57.85596
H         69.82692      107.29923       55.31725
H         71.15049      104.77505       56.31073
H         71.09940      105.87318       58.52051
H         70.13806      107.77079       58.82409
H         72.70858      107.71483       58.15588
H         73.10764      106.28825       57.12889
H         72.32466      107.75048       56.39633
N         67.90564      105.31344       56.41039
C         66.64430      104.73027       56.88939
C         65.85235      104.19854       55.68945
O         65.63179      104.98466       54.77760
C         65.80661      105.78850       57.66894
C         66.64882      106.40264       58.82053
C         64.52694      105.12570       58.22465
C         65.91514      107.46748       59.63833
H         67.85025      106.04591       55.68750
H         66.86739      103.93124       57.61564
H         65.51455      106.60637       56.97273
H         67.54275      106.89562       58.38625
H         66.99413      105.60121       59.50992
H         63.93199      104.66645       57.41251
H         64.78564      104.32907       58.95509
H         63.86616      105.86711       58.71542
H         65.56082      108.28739       58.97909
H         65.05630      107.03410       60.18951
H         66.61021      107.89191       60.39347
N         65.38611      102.91584       55.55528
C         65.49739      101.84039       56.53569
C         64.21189      101.01076       56.59345
O         63.73211      100.56594       55.56158
C         66.68333      100.94010       56.16145
C         66.90710       99.87985       57.20740
O         66.84255       98.69815       56.91077
O         67.17505      100.23303       58.48021
H         64.94702      102.67442       54.65257
H         65.70251      102.23787       57.54491
H         67.60473      101.55934       56.10226
H         66.50887      100.47592       55.16607
N         63.67448      100.68127       57.80338
C         62.53660       99.78159       57.99675
C         61.52242      100.45989       58.91073
O         61.94050      100.91764       59.96333
C         63.04464       98.50159       58.70355
C         61.93018       97.51426       58.98320
C         61.48394       97.31490       60.30172
C         61.32319       96.79167       57.93987
C         60.44266       96.42224       60.57042
C         60.28767       95.88963       58.21557
C         59.84566       95.70878       59.52909
H         64.14981      101.02555       58.65065
H         62.09172       99.47143       57.03195
H         63.52230       98.80558       59.66087
H         63.83008       97.99805       58.09797
H         61.93022       97.86342       61.12134
H         61.65214       96.92259       56.91667
H         60.09771       96.28550       61.58730
H         59.82438       95.33162       57.41179
H         59.04085       95.01616       59.74133
N         60.17479      100.50994       58.65540
C         59.46773       99.91421       57.53126
C         59.81413      100.52145       56.19229
O         60.08608       99.78893       55.25358
C         57.98630      100.17143       57.85316
C         57.99348      100.15648       59.36616
C         59.23232      100.99317       59.64723
H         59.63887       98.81760       57.53703
H         57.69599      101.20568       57.55698
H         57.28270       99.46107       57.36883
H         57.06597      100.53506       59.84515
H         58.18234       99.11243       59.70886
H         59.02964      102.06951       59.44905
H         59.56372      100.84964       60.69822
N         59.81130      101.87500       56.04005
C         60.03490      102.52299       54.75624
C         58.79413      102.31956       53.89053
O         57.73812      102.76348       54.32066
C         60.27576      104.03539       54.95491
C         61.58298      104.30138       55.71946
C         61.78318      105.77196       55.93914
O         62.75553      106.33873       55.46689
O         60.90001      106.46922       56.67920
H         59.63664      102.46026       56.87048
H         60.96222      102.12422       54.31310
H         59.41489      104.48268       55.50110
H         60.35326      104.52727       53.95971
H         62.43466      103.88895       55.13333
H         61.57085      103.80118       56.71076
N         58.77275      101.68113       52.68169
C         59.89223      101.06856       51.99476
H         60.85113      101.12916       52.52896
H         59.66853       99.99362       51.83119
H         60.02132      101.55662       51.00634
H         57.86451      101.61780       52.19501
Ca        70.44049      108.72684       50.49785
O         67.67982      109.05312       49.16249
H         67.32629      108.71335       48.30250
H         67.45269      110.01587       49.16175
O         67.77651      106.81053       51.27069
H         66.88047      107.14300       51.01167
H         67.61483      105.88892       51.59409
O         70.63540      104.88258       49.61074
H         70.89092      103.95912       49.86059
H         69.65133      104.84889       49.51008
O         69.13711      110.04009       52.69471
H         68.82086      110.80296       52.14805
H         69.07971      110.35801       53.62984

Ca 1.0



