%chk=apoCaM-CA-Ng.loop1.water4.frame185.chk
%nprocshared=20
%mem=10GB
%nosave
#b3lyp/svp scf=(tight,noincore,xqc) Test 
#IOP(5/87=12) Density=Current Pop=(MK,readradii) iop(6/33=2) iop(6/42=6)

apoCaM-CA-Ng.loop1.water4.frame185 

   0  1 
C         25.26766       42.34451       14.28477
C         25.47444       43.79728       13.96277
O         26.14124       44.09825       12.98318
H         24.74851       41.84645       13.43924
H         26.24902       41.85473       14.45216
H         24.64955       42.21364       15.19876
N         24.90929       44.76172       14.74113
C         25.02123       46.18994       14.45334
C         26.43570       46.75828       14.60265
O         26.59439       47.93361       14.30741
C         24.01773       47.00247       15.31053
C         24.30674       46.99087       16.79136
O         24.51249       48.03999       17.37639
O         24.29827       45.84166       17.49200
H         24.31352       44.45295       15.52209
H         24.70462       46.33788       13.39631
H         22.99334       46.60453       15.14403
H         24.02039       48.05697       14.95253
N         27.50650       46.01557       15.02381
C         28.85336       46.56911       15.17789
C         29.76263       45.99048       14.09818
O         29.71946       44.78002       13.92464
C         29.38673       46.32318       16.61384
C         29.89151       44.89959       16.90649
C         30.36466       44.78181       18.36530
C         31.06265       43.44520       18.67488
N         32.36704       43.33491       18.01298
H         27.38183       45.01691       15.23572
H         28.81567       47.66303       15.09925
H         28.59895       46.62046       17.34074
H         30.25621       46.99411       16.77950
H         30.74778       44.70938       16.23070
H         29.10000       44.14437       16.71429
H         29.47123       44.88109       19.01974
H         31.06889       45.60498       18.61738
H         30.41048       42.59124       18.38805
H         31.22972       43.39458       19.77363
H         32.26884       43.31349       16.97432
H         32.98021       44.13541       18.29344
H         32.82790       42.44601       18.31346
N         30.63337       46.71099       13.32348
C         30.95129       48.13649       13.38943
C         31.42641       48.52834       14.78735
O         30.79474       49.37182       15.40752
C         29.80467       49.03640       12.85721
C         29.39125       48.76161       11.44035
O         29.90584       47.86799       10.78812
O         28.44061       49.53197       10.87742
H         31.18828       46.17043       12.64077
H         31.79952       48.32880       12.69564
H         30.17355       50.07787       12.86359
H         28.90125       48.99052       13.48687
N         32.51542       47.96705       15.39355
C         33.39411       46.96703       14.80743
C         34.85182       47.35502       14.99482
O         35.23767       47.50366       16.14564
H         32.71937       48.25371       16.36438
H         33.13244       46.74336       13.76787
H         33.24952       46.01784       15.36574
N         35.77163       47.47928       13.98907
C         35.52220       47.37922       12.55367
C         36.11876       48.57244       11.82167
O         36.74983       49.41834       12.44272
C         36.04169       46.02744       12.02563
C         37.49692       45.78523       12.31482
O         38.35435       46.51473       11.84428
O         37.85941       44.74592       13.09151
H         36.75123       47.64124       14.27495
H         34.44208       47.41912       12.33127
H         35.86463       45.94341       10.93256
H         35.44859       45.22629       12.51888
N         35.89042       48.73232       10.48649
C         36.27932       49.92092        9.74451
C         35.64219       51.13152       10.37795
O         36.34109       52.08718       10.68527
H         35.34554       48.01728        9.98219
H         35.90807       49.82701        8.70130
H         37.38694       50.02498        9.71306
N         34.31839       51.09673       10.70210
C         33.65991       52.12967       11.48505
C         33.53394       51.61051       12.90308
O         32.84979       50.62190       13.11587
C         32.27425       52.45572       10.88807
C         32.38032       52.99833        9.46172
O         31.62829       53.40456       11.69815
H         33.78687       50.23501       10.50044
H         34.27580       53.05627       11.50140
H         31.68258       51.50684       10.85965
H         30.66103       53.17878       11.69657
H         32.87082       52.25801        8.79448
H         31.36352       53.20158        9.06446
H         32.96481       53.94230        9.44978
N         34.23610       52.18864       13.91876
C         34.24582       51.63813       15.27390
C         32.92387       51.81835       16.01998
O         32.80436       51.24956       17.09535
C         35.42330       52.20621       16.12739
C         35.31247       53.74153       16.34003
C         36.77430       51.80096       15.50362
C         36.31897       54.28491       17.35541
H         34.85451       52.97768       13.68496
H         34.42111       50.54090       15.18464
H         35.36919       51.71498       17.12487
H         34.30336       53.98473       16.73425
H         35.44560       54.28580       15.38201
H         36.91785       52.26538       14.50595
H         37.62269       52.09323       16.15345
H         36.82326       50.69673       15.38806
H         36.17537       53.78715       18.33802
H         37.36376       54.13860       17.01665
H         36.15621       55.37557       17.48621
N         31.90937       52.60494       15.54825
C         30.64873       52.80187       16.27360
C         29.47503       52.29664       15.44959
O         29.68821       51.85438       14.33502
C         30.51080       54.27247       16.73706
C         30.51502       55.28153       15.58700
O         31.56717       54.58855       17.60759
H         32.03007       53.09567       14.65242
H         30.63702       52.18172       17.19599
H         29.54746       54.40253       17.28068
H         31.39254       54.10955       18.46059
H         30.38629       56.30554       15.99800
H         31.48020       55.25921       15.03955
H         29.68445       55.07578       14.88099
N         28.20931       52.26698       15.96942
C         27.11172       51.53723       15.32565
C         25.99826       52.43927       14.82573
O         26.01384       53.63495       15.07449
C         26.55196       50.46600       16.30101
C         25.86607       51.07049       17.53966
O         27.59774       49.61999       16.70419
H         28.04290       52.70021       16.88635
H         27.49520       51.00759       14.42648
H         25.78624       49.87220       15.75452
H         27.18286       48.77309       17.01448
H         25.02106       51.72382       17.23766
H         25.45674       50.26385       18.18003
H         26.57237       51.65599       18.15953
N         25.00022       51.89049       14.06535
C         23.87028       52.66190       13.54205
C         23.07247       51.98968       12.40710
O         22.18574       52.65812       11.88948
C         22.91787       53.03943       14.69972
C         22.22447       51.79902       15.30591
C         21.23805       52.14597       16.42936
C         21.92939       52.66758       17.69792
N         20.94622       52.95638       18.74089
H         25.09603       50.89577       13.85625
H         24.28660       53.58833       13.08777
H         22.13772       53.73397       14.31768
H         23.49235       53.58068       15.47651
H         22.97556       51.07083       15.68248
H         21.63732       51.29939       14.50523
H         20.68773       51.21762       16.69794
H         20.49935       52.88890       16.05634
H         22.50028       53.59421       17.48108
H         22.63886       51.89455       18.06865
H         21.44459       53.28302       19.59991
H         20.29616       53.71001       18.41892
H         20.40023       52.09493       18.97304
N         23.31019       50.72534       11.94161
C         22.60349       50.12511       10.81634
C         21.93896       48.83770       11.26263
O         22.62468       47.94330       11.74253
C         23.61942       49.85227        9.69014
C         24.19494       51.17245        9.14326
C         25.29254       50.97042        8.13707
O         25.82034       51.94318        7.62293
O         25.72348       49.73742        7.81153
H         24.04362       50.13582       12.34607
H         21.82201       50.80605       10.41147
H         23.12828       49.30443        8.85548
H         24.44045       49.21715       10.09326
H         24.61933       51.77654        9.97250
H         23.37057       51.75002        8.66977
N         20.59427       48.67093       11.12814
C         19.92251       47.45720       11.54034
H         18.83468       47.53474       11.32795
H         20.33067       46.58718       10.98297
H         20.06104       47.29789       12.63083
H         20.02373       49.42487       10.71569
Ca        28.27946       48.02605        8.17872
O         25.64590       46.41635        7.75059
H         25.55335       47.20124        7.15477
H         26.46955       45.96537        7.43643
O         31.34545       47.85977        8.10131
H         31.64413       48.42968        7.34895
H         31.36065       46.93863        7.73831
O         29.75203       50.84429        8.17896
H         29.27339       51.66119        8.46853
H         29.43293       50.68419        7.25529
O         26.99792       46.42236       10.78361
H         27.05705       46.98997       11.59242
H         27.82106       45.87236       10.80627

Ca 1.0



