%chk=apoCaM-CA-Ng.loop4.water6.frame907.chk
%nprocshared=20
%mem=10GB
%nosave
#b3lyp/svp scf=(tight,noincore,xqc) Test 
#IOP(5/87=12) Density=Current Pop=(MK,readradii) iop(6/33=2) iop(6/42=6)

apoCaM-CA-Ng.loop4.water6.frame907 

   -3  1 
C        -12.88262        7.87827       50.53650
C        -13.50489        7.80746       51.90060
O        -13.68364        6.71232       52.41283
H        -11.87538        7.41198       50.56606
H        -13.51730        7.33707       49.80524
H        -12.76949        8.93005       50.19665
N        -13.83877        8.95175       52.56108
C        -14.40213        9.00211       53.90419
C        -13.45006        8.35438       54.89953
O        -13.86684        7.53159       55.70450
C        -15.83437        8.41267       53.91803
C        -16.52067        8.58624       55.24617
O        -16.71873        9.81912       55.75038
O        -16.91292        7.61083       55.86708
H        -13.65253        9.85677       52.10176
H        -14.47985       10.07762       54.18171
H        -15.80538        7.33396       53.65287
H        -16.44574        8.93723       53.15266
N        -12.12411        8.67567       54.87626
C        -11.17186        8.11989       55.83831
C        -11.40689        8.76590       57.20751
O        -12.11183        9.76649       57.24594
C         -9.69955        8.25814       55.33624
C         -9.25995        9.73798       55.16173
C         -9.52307        7.43754       54.04193
C         -7.78299        9.89430       54.79496
H        -11.79751        9.30890       54.13443
H        -11.38850        7.03593       55.90319
H         -9.03298        7.79882       56.08788
H         -9.41746       10.27444       56.12134
H         -9.85813       10.24764       54.37972
H        -10.14048        7.84622       53.21484
H         -8.46394        7.41242       53.71842
H         -9.82446        6.38223       54.21859
H         -7.56081        9.44594       53.80553
H         -7.53236       10.97420       54.73340
H         -7.14123        9.42307       55.56876
N        -10.92525        8.28920       58.39723
C        -10.13839        7.07381       58.62356
C        -10.87710        5.86178       58.09258
O        -10.30159        5.09333       57.33417
C         -9.86277        6.87284       60.13366
C         -8.97992        7.94693       60.72191
O         -7.78387        7.61628       61.24499
O         -9.34204        9.11212       60.75255
H        -11.20742        8.82731       59.23090
H         -9.14730        7.14571       58.13292
H         -9.33945        5.90047       60.26744
H        -10.81851        6.82808       60.70051
N        -12.19183        5.68171       58.38829
C        -13.00112        4.63230       57.80214
C        -12.78312        3.29170       58.45465
O        -12.97466        3.19738       59.65893
H        -12.67150        6.38747       58.96791
H        -12.86264        4.60768       56.69864
H        -14.06872        4.88245       57.98538
N        -12.50370        2.18534       57.70401
C        -12.57393        0.82883       58.24663
C        -11.30038        0.00224       58.08787
O        -11.30539       -1.12475       58.56530
C        -13.82988        0.13312       57.66432
C        -13.91945        0.13029       56.15834
O        -13.02562       -0.53553       55.41184
O        -14.83238        0.72127       55.60341
H        -12.36813        2.29754       56.68738
H        -12.74150        0.86214       59.34564
H        -14.71354        0.69227       58.04603
H        -13.90978       -0.90707       58.04596
N        -10.15902        0.47399       57.50210
C         -8.92026       -0.30628       57.46900
C         -8.97294       -1.56676       56.61259
O         -7.99269       -2.29575       56.59325
H        -10.13470        1.43363       57.12822
H         -8.65404       -0.58615       58.51173
H         -8.09959        0.32858       57.07031
N        -10.06189       -1.86677       55.85440
C        -10.20061       -3.00791       54.95717
C         -9.17122       -2.96332       53.84198
O         -8.55589       -3.97606       53.53254
C        -10.23417       -4.36173       55.70336
C        -11.38485       -4.43579       56.71841
C        -11.49802       -5.82040       57.30688
N        -11.36854       -6.02682       58.63788
O        -11.72358       -6.76922       56.56969
H        -10.84881       -1.21730       55.86253
H        -11.18495       -2.89626       54.44820
H         -9.26783       -4.55416       56.21814
H        -10.38896       -5.16086       54.94443
H        -12.34628       -4.20074       56.21278
H        -11.21858       -3.68342       57.51854
H        -11.18358       -5.24423       59.28133
H        -11.45649       -6.97749       59.02767
N         -8.95240       -1.79394       53.17866
C         -8.07613       -1.66572       52.01767
C         -8.79070       -1.01406       50.82528
O         -8.17345       -0.90746       49.77714
C         -6.80116       -0.84833       52.38696
C         -7.12163        0.58480       52.85063
C         -5.97601       -1.56719       53.46422
H         -9.41853       -0.94907       53.54041
H         -7.74141       -2.67239       51.68084
H         -6.16046       -0.77793       51.47989
H         -7.67841        1.13680       52.06636
H         -7.72173        0.58379       53.78466
H         -6.17998        1.13936       53.04966
H         -5.69548       -2.58474       53.11872
H         -5.04067       -1.00371       53.67024
H         -6.54673       -1.65434       54.41160
N        -10.04782       -0.48029       50.93358
C        -10.65042        0.36929       49.91342
C        -12.13709        0.08114       49.77377
O        -12.81619        0.01534       50.78639
C        -10.46758        1.82953       50.37988
C        -11.04964        2.82799       49.40903
N        -12.01687        3.68933       49.80344
O        -10.63919        2.86330       48.25876
H        -10.54456       -0.51910       51.82970
H        -10.13254        0.27466       48.93394
H         -9.38107        2.04141       50.48038
H        -10.93016        1.95938       51.38341
H        -12.37361        3.67881       50.77012
H        -12.41067        4.37292       49.14035
N        -12.72215        0.01208       48.53677
C        -14.18137       -0.03832       48.35199
C        -14.56810       -0.13719       46.86796
O        -13.73549        0.06619       45.99894
C        -14.79122        1.26894       48.95409
C        -16.28626        1.43030       48.84768
C        -17.15880        0.52421       49.47247
C        -16.81986        2.51791       48.13634
C        -18.54352        0.69673       49.36885
C        -18.20113        2.69015       48.03726
C        -19.06824        1.78122       48.64889
O        -20.39958        1.96241       48.54103
H        -12.10498        0.06349       47.71520
H        -14.56349       -0.94628       48.86719
H        -14.29128        2.12407       48.44658
H        -14.55908        1.36039       50.03098
H        -16.76711       -0.31533       50.03290
H        -16.16675        3.23712       47.65882
H        -19.20701       -0.01095       49.84906
H        -18.59628        3.53276       47.48396
H        -21.03612        1.35920       48.94966
N        -15.85500       -0.44405       46.52215
C        -16.36934       -0.43722       45.15858
C        -17.55938        0.51598       45.09986
O        -18.67310        0.06377       45.33184
C        -16.83105       -1.85330       44.74066
C        -15.68225       -2.85773       44.62663
C        -16.21000       -4.19249       44.17767
O        -17.10582       -4.85556       44.93473
O        -15.83544       -4.67955       43.12284
H        -16.52217       -0.68786       47.26497
H        -15.60121       -0.12867       44.42614
H        -17.31576       -1.78084       43.74013
H        -17.58405       -2.23313       45.46784
H        -15.17544       -2.97982       45.60658
H        -14.94347       -2.48125       43.88493
N        -17.45781        1.85494       44.85668
C        -16.23407        2.60652       44.59753
C        -15.58249        2.18879       43.29479
O        -16.24628        2.18291       42.26694
C        -16.57194        4.11414       44.53091
C        -15.32599        4.99038       44.33226
C        -15.69108        6.44390       44.33097
O        -16.45010        6.88969       43.48461
O        -15.17253        7.26522       45.26260
H        -18.34283        2.38806       44.88679
H        -15.53195        2.46475       45.44762
H        -17.05695        4.40840       45.48806
H        -17.29450        4.30062       43.70440
H        -14.83082        4.75241       43.36660
H        -14.60707        4.79457       45.15708
N        -14.25269        1.89195       43.26693
C        -13.53052        1.55337       42.05870
H        -13.04989        0.56144       42.18298
H        -14.18880        1.52139       41.16573
H        -12.74137        2.31539       41.88277
H        -13.70743        1.94456       44.14000
Ca       -15.64863        9.95091       44.08023
O        -17.99182        9.96741       41.98677
H        -18.51360        9.13801       41.84433
H        -18.31138       10.58710       41.28381
O        -14.67006       12.19162       42.28334
H        -14.80838       12.77780       43.06936
H        -13.68653       12.14149       42.18127
O        -13.89794        8.64037       41.89907
H        -13.49496        9.28204       41.26167
H        -14.55409        8.13188       41.35930
O        -17.54680       12.24243       44.47064
H        -16.93210       12.95996       44.76681
H        -18.41803       12.47484       44.87891
O        -16.28057        9.50625       47.10308
H        -16.74940       10.34783       47.33167
H        -15.55420        9.43428       47.77203
O        -18.56372        8.82342       45.00734
H        -19.14626        9.57553       45.28192
H        -19.18099        8.05731       44.89614

Ca 1.0



