%chk=apoCaM-CA-Ng.loop2.water3.frame287.chk
%nprocshared=20
%mem=10GB
%nosave
#b3lyp/svp scf=(tight,noincore,xqc) Test 
#IOP(5/87=12) Density=Current Pop=(MK,readradii) iop(6/33=2) iop(6/42=6)

apoCaM-CA-Ng.loop2.water3.frame287 

   -2  1 
C         49.71025       55.20604       48.68748
C         50.63576       56.00137       49.56156
O         50.97189       55.54924       50.64489
H         48.79279       55.79639       48.48356
H         50.21215       54.97361       47.72479
H         49.41928       54.25315       49.17901
N         51.10419       57.20456       49.13189
C         52.00740       58.04740       49.91290
C         51.35223       58.53730       51.19953
O         50.29164       59.14475       51.13559
C         52.52007       59.24710       49.07780
C         51.46291       60.24100       48.66395
O         50.54329       59.91121       47.93287
O         51.54778       61.51815       49.08234
H         50.82420       57.50742       48.18765
H         52.91273       57.44913       50.15920
H         53.02876       58.86475       48.16621
H         53.28229       59.78284       49.68548
N         51.95845       58.34123       52.40953
C         51.40322       58.84919       53.66639
C         50.12181       58.14202       54.08652
O         49.50766       58.57182       55.05315
C         52.43185       58.71330       54.79383
H         52.87529       57.86856       52.42608
H         51.19006       59.93337       53.53228
H         53.36135       59.25775       54.52420
H         52.03627       59.14997       55.73617
H         52.67682       57.64328       54.96790
N         49.66584       57.04484       53.42108
C         48.44030       56.32690       53.72925
C         48.55134       55.68628       55.11395
O         47.71751       55.92135       55.97714
C         47.23006       57.28765       53.51826
C         45.96029       56.61117       53.09267
O         44.98301       57.27701       52.79124
O         45.95692       55.29233       52.87439
H         50.20783       56.67802       52.63333
H         48.37967       55.50741       52.97772
H         47.46970       57.94383       52.65206
H         47.07573       57.94149       54.40206
N         49.64157       54.90956       55.39669
C         49.97732       54.39193       56.71967
C         49.13679       53.23454       57.22736
O         49.42420       52.76472       58.31945
H         50.34401       54.77198       54.65366
H         49.95646       55.22735       57.45266
H         51.02172       54.01151       56.68175
N         48.10328       52.70784       56.51830
C         47.29926       51.58152       56.99769
C         48.12615       50.30414       57.07511
O         48.72281       49.89839       56.08790
C         46.07605       51.40404       56.08820
C         45.15903       52.59367       56.27246
N         45.02808       53.53026       55.31009
O         44.55711       52.72930       57.32756
H         47.86424       53.13134       55.61071
H         46.90857       51.81433       58.01430
H         45.50379       50.48660       56.34771
H         46.42378       51.30322       55.03650
H         45.57804       53.46507       54.44811
H         44.41455       54.34632       55.44816
N         48.19372       49.62589       58.25555
C         49.00260       48.44391       58.50328
C         48.62033       47.23272       57.67806
O         47.45571       46.86030       57.65744
H         47.66041       49.98904       59.06053
H         48.85694       48.15580       59.56780
H         50.07779       48.69165       58.37645
N         49.59804       46.49439       57.07305
C         49.34990       45.19879       56.43323
C         48.58931       45.29654       55.11259
O         48.20349       44.25735       54.59473
C         50.67070       44.39118       56.25218
C         51.70911       45.05665       55.33211
O         51.24261       44.09228       57.50287
H         50.56830       46.81703       57.18921
H         48.72075       44.60033       57.13024
H         50.41090       43.41580       55.78539
H         51.62546       44.92546       57.88077
H         51.28618       45.21628       54.32579
H         52.05560       46.03160       55.73100
H         52.59559       44.39560       55.23092
N         48.34939       46.48926       54.50109
C         47.60023       46.63152       53.25006
C         46.41688       47.55708       53.46114
O         46.28302       48.11578       54.54346
C         48.51924       47.22113       52.12440
C         49.16711       48.57323       52.54567
C         49.57374       46.19278       51.69509
C         49.86353       49.30769       51.40052
H         48.71166       47.34728       54.93837
H         47.19501       45.65439       52.90657
H         47.89126       47.40421       51.22731
H         49.90326       48.41393       53.36216
H         48.38075       49.25871       52.92407
H         49.07802       45.25007       51.37981
H         50.15994       46.55748       50.82795
H         50.26771       45.97422       52.52449
H         50.26178       50.27436       51.77660
H         50.71526       48.72480       50.99831
H         49.13829       49.51998       50.58650
N         45.58162       47.85343       52.41837
C         44.72125       49.02144       52.45580
C         43.28524       48.74549       52.05566
O         42.78377       49.39335       51.15015
C         45.39149       50.06780       51.54811
C         44.82227       51.42093       51.75843
O         44.86749       51.90602       52.87154
O         44.33252       52.15832       50.75432
H         45.70035       47.37269       51.51376
H         44.68884       49.43341       53.48854
H         45.35107       49.76269       50.48049
H         46.46260       50.14996       51.83422
N         42.53041       47.84560       52.73798
C         41.09852       47.68454       52.49106
C         40.83832       47.24147       51.04901
O         41.43631       46.25446       50.64226
C         40.50671       46.66092       53.48640
C         39.00575       46.78043       53.59550
C         38.44451       47.94372       54.15726
C         38.15634       45.74479       53.17611
C         37.06096       48.06833       54.29535
C         36.76864       45.87712       53.31052
C         36.22252       47.03624       53.87108
H         42.97935       47.30925       53.49679
H         40.62936       48.66729       52.70022
H         40.90048       46.84910       54.50938
H         40.82878       45.63715       53.19378
H         39.08038       48.75073       54.50085
H         38.56461       44.84029       52.74427
H         36.64087       48.96399       54.73560
H         36.11472       45.07944       52.98418
H         35.15023       47.13470       53.98057
N         39.96547       47.88922       50.21005
C         39.68969       47.44962       48.84788
C         40.65360       48.05802       47.82838
O         40.57813       47.69365       46.66331
C         38.27168       47.98358       48.61657
C         38.33833       49.33175       49.31958
C         39.08623       48.97508       50.60483
H         39.69806       46.34073       48.75982
H         37.94159       48.01275       47.55557
H         37.55812       47.34845       49.18968
H         38.98228       49.99898       48.70386
H         37.36721       49.84543       49.48090
H         39.62494       49.86442       50.99685
H         38.37773       48.58366       51.36511
N         41.51881       49.05117       48.17597
C         42.37845       49.74654       47.22691
C         43.49215       48.83792       46.75250
O         43.59883       48.61313       45.55495
C         42.95653       51.02976       47.86734
C         41.83368       52.03145       48.21134
C         42.36096       53.27504       48.86198
O         43.16672       53.98486       48.28181
O         41.92817       53.62261       50.08969
H         41.50978       49.38537       49.14374
H         41.77271       50.07603       46.35176
H         43.65350       51.51657       47.14970
H         43.52704       50.76412       48.78130
H         41.10027       51.56947       48.90446
H         41.29754       52.31781       47.28164
N         44.36544       48.28624       47.64236
C         45.47237       47.43478       47.25365
H         46.42340       47.88795       47.60468
H         45.35471       46.43701       47.72482
H         45.53876       47.29891       46.15340
H         44.24586       48.47539       48.64832
Ca        44.70712       54.28151       51.31517
O         42.65501       56.60829       50.51930
H         42.39090       56.95117       49.62879
H         41.84977       56.73023       51.08227
O         42.38560       54.57596       53.27394
H         41.46137       54.58779       52.91922
H         42.37525       55.22900       54.01793
O         45.61342       56.49770       49.32208
H         46.08057       57.10236       49.95175
H         46.32020       56.19115       48.70063

Ca 1.0



