%chk=apoCaM-CA-Ng.loop2.water3.frame54.chk
%nprocshared=20
%mem=10GB
%nosave
#b3lyp/svp scf=(tight,noincore,xqc) Test 
#IOP(5/87=12) Density=Current Pop=(MK,readradii) iop(6/33=2) iop(6/42=6)

apoCaM-CA-Ng.loop2.water3.frame54 

   -2  1 
C         59.26036       79.49409       84.31826
C         60.64165       80.02291       84.06222
O         61.45856       79.28627       83.52818
H         58.78141       79.21910       83.35504
H         59.32339       78.59155       84.96207
H         58.62429       80.24723       84.82886
N         60.97252       81.30004       84.41102
C         62.29570       81.87621       84.19395
C         62.94585       82.32201       85.50590
O         64.07830       82.78143       85.46119
C         62.15801       83.04331       83.19758
C         63.48678       83.59774       82.76380
O         63.78598       84.89065       82.99017
O         64.29620       82.88102       82.19603
H         60.24633       81.90132       84.83073
H         62.96817       81.11566       83.73864
H         61.53900       83.84686       83.65346
H         61.63594       82.67831       82.28620
N         62.31685       82.18589       86.71376
C         62.92034       82.51479       88.00087
C         64.15032       81.65965       88.22824
O         65.22208       82.17026       88.52527
C         63.18696       84.02138       88.13287
H         61.37107       81.78329       86.75672
H         62.19031       82.24325       88.79619
H         63.57890       84.24958       89.14723
H         63.92552       84.37512       87.38497
H         62.23897       84.58208       87.99161
N         64.04213       80.31175       88.06814
C         65.12126       79.35513       88.25281
C         66.30815       79.67017       87.34078
O         67.44543       79.46466       87.74384
C         65.48483       79.28032       89.75890
C         66.29667       78.07743       90.15898
O         66.63484       77.91091       91.45144
O         66.61996       77.23120       89.34355
H         63.12909       79.92758       87.77892
H         64.70971       78.36523       87.95204
H         64.54306       79.22078       90.34456
H         66.01862       80.20588       90.06344
N         66.11804       80.21586       86.09975
C         67.22749       80.55308       85.21904
C         67.94332       79.32213       84.70533
O         69.07061       79.44779       84.24919
H         65.16494       80.43369       85.77860
H         67.93626       81.19793       85.78544
H         66.87360       81.13797       84.34305
N         67.34655       78.09652       84.74479
C         68.02385       76.85616       84.38909
C         68.51169       76.83731       82.95550
O         69.71605       76.72503       82.76948
C         67.09959       75.64918       84.64455
C         66.72484       75.55661       86.09852
N         67.67101       75.34261       87.04253
O         65.55553       75.67703       86.42508
H         66.37656       78.03339       85.08661
H         68.91459       76.75580       85.04886
H         67.60561       74.70368       84.35584
H         66.17855       75.75334       84.02798
H         68.66127       75.23036       86.78363
H         67.41604       75.27562       88.03686
N         67.65353       76.90261       81.89392
C         68.11921       76.81209       80.51708
C         67.53791       75.60496       79.82127
O         67.66503       74.50423       80.34088
H         66.64137       77.00337       82.06215
H         69.22350       76.69873       80.47557
H         67.86841       77.74663       79.97342
N         66.96250       75.72622       78.58826
C         66.52170       74.56473       77.81382
C         65.25163       73.92981       78.36079
O         64.93713       72.82548       77.93970
C         66.35455       74.89202       76.30734
C         65.21896       75.88344       76.00872
O         67.57153       75.33914       75.76088
H         66.94605       76.66105       78.15767
H         67.33590       73.80614       77.87509
H         66.09651       73.94705       75.78003
H         67.72405       76.27311       76.05773
H         64.25305       75.46642       76.34924
H         65.38410       76.85949       76.50859
H         65.14878       76.05215       74.91454
N         64.47338       74.55741       79.28968
C         63.31393       73.92548       79.91447
C         63.63305       73.70696       81.37923
O         64.71159       74.08543       81.81887
C         61.99700       74.74089       79.68480
C         62.02818       76.14685       80.34194
C         61.67899       74.81727       78.18169
C         60.69535       76.89834       80.23930
H         64.73713       75.49732       79.61700
H         63.14328       72.91223       79.48918
H         61.16617       74.17029       80.15356
H         62.82300       76.77409       79.88695
H         62.24915       76.03053       81.42424
H         62.43224       75.43340       77.65619
H         61.66431       73.79908       77.73796
H         60.67776       75.25808       78.00147
H         60.43837       77.13125       79.18589
H         59.87607       76.30118       80.69379
H         60.77015       77.86399       80.78242
N         62.73943       73.09404       82.20086
C         63.00465       72.87505       83.61395
C         62.85197       71.39144       83.98398
O         62.91630       71.07069       85.16166
C         62.08992       73.84141       84.39554
C         62.52071       74.10753       85.81501
O         61.84844       75.02257       86.53921
O         63.48243       73.54149       86.31035
H         61.81987       72.81148       81.82969
H         64.04648       73.17476       83.86104
H         61.03269       73.50261       84.34727
H         62.15227       74.83594       83.89928
N         62.70966       70.42186       83.02340
C         62.59442       68.99112       83.31373
C         61.27113       68.69492       84.00472
O         60.24296       68.91453       83.37986
C         62.64135       68.18043       81.99376
C         62.39888       66.70263       82.21075
C         63.31813       65.91174       82.92002
C         61.22570       66.10859       81.71020
C         63.06507       64.54966       83.12174
C         60.97362       64.75144       81.92107
C         61.89300       63.97137       82.62493
H         62.72684       70.69853       82.03157
H         63.46401       68.68208       83.92940
H         63.61459       68.33034       81.47820
H         61.85066       68.58253       81.32140
H         64.22797       66.34693       83.31318
H         60.49715       66.69855       81.16771
H         63.77575       63.94120       83.66546
H         60.06327       64.30650       81.53990
H         61.69530       62.91939       82.78540
N         61.18977       68.15898       85.26034
C         59.92960       67.82681       85.90509
C         59.11941       69.07639       86.20652
O         57.91117       69.04396       86.01870
C         60.36172       67.02265       87.13820
C         61.70824       67.61198       87.48440
C         62.32557       67.82697       86.10237
H         59.30278       67.14294       85.28831
H         59.61605       66.96630       87.95988
H         60.57284       65.98174       86.79849
H         61.52278       68.59693       87.95905
H         62.33189       67.01229       88.18103
H         63.07560       68.64082       86.18399
H         62.79464       66.90052       85.70440
N         59.71331       70.23031       86.62365
C         58.95996       71.45152       86.90457
C         58.29257       72.03208       85.65640
O         57.47762       72.93194       85.80580
C         59.88823       72.52272       87.50266
C         60.52473       72.09713       88.83526
C         61.50447       73.12703       89.31677
O         61.13824       74.26667       89.55589
O         62.79721       72.79133       89.49232
H         60.73546       70.24161       86.73538
H         58.17005       71.20696       87.64829
H         59.32631       73.46936       87.66453
H         60.68282       72.70190       86.76141
H         61.07182       71.13955       88.71945
H         59.73134       71.95525       89.59830
N         58.60240       71.59673       84.40116
C         57.98501       72.09921       83.19049
H         57.20924       72.86571       83.39410
H         58.76434       72.54498       82.53680
H         57.50851       71.25476       82.64814
H         59.32667       70.88578       84.27786
Ca        63.98151       75.44639       88.73650
O         65.93663       73.11975       88.65689
H         66.51818       72.88209       87.89164
H         66.36039       72.68299       89.43742
O         62.22311       77.53381       89.60838
H         62.71620       77.53098       90.46714
H         61.86604       78.45270       89.52657
O         64.58600       74.87063       91.54234
H         63.81575       75.45484       91.75695
H         64.40919       74.03260       92.03845

Ca 1.0



