%chk=apoCaM-CA-Ng.loop2.water4.frame768.chk
%nprocshared=20
%mem=10GB
%nosave
#b3lyp/svp scf=(tight,noincore,xqc) Test 
#IOP(5/87=12) Density=Current Pop=(MK,readradii) iop(6/33=2) iop(6/42=6)

apoCaM-CA-Ng.loop2.water4.frame768 

   -2  1 
C         86.81151       -2.95813        4.59839
C         88.14967       -3.25729        3.99678
O         88.23518       -3.32500        2.77981
H         86.08626       -3.74474        4.30423
H         86.86633       -2.90911        5.70510
H         86.45634       -1.97654        4.21718
N         89.24912       -3.44786        4.78320
C         90.57572       -3.67010        4.22007
C         90.97765       -2.41792        3.45680
O         91.19533       -1.38737        4.07935
C         91.57585       -4.01395        5.34727
C         92.96554       -4.28630        4.84772
O         93.17292       -5.19953        4.06504
O         93.99632       -3.54126        5.29118
H         89.13457       -3.42415        5.80828
H         90.51654       -4.54613        3.53472
H         91.21608       -4.92217        5.87961
H         91.60837       -3.17976        6.08213
N         90.97255       -2.41585        2.09283
C         91.16771       -1.21137        1.28754
C         89.84748       -0.84085        0.61488
O         88.94830       -1.67088        0.62018
C         92.24629       -1.50698        0.23813
H         90.72500       -3.28948        1.60098
H         91.48806       -0.37032        1.93337
H         93.19008       -1.80688        0.73814
H         91.91465       -2.34278       -0.41767
H         92.46354       -0.64044       -0.40890
N         89.59858        0.35231       -0.00436
C         90.46982        1.53020       -0.05305
C         90.63270        2.19412        1.31756
O         90.05886        1.72969        2.29278
C         89.89379        2.56142       -1.06971
C         88.59013        3.20056       -0.65000
O         88.53302        4.53135       -0.45172
O         87.57853        2.53326       -0.51109
H         88.68801        0.41374       -0.48349
H         91.45918        1.24169       -0.44789
H         89.75902        2.07130       -2.05788
H         90.63291        3.37364       -1.22501
N         91.34589        3.35313        1.43400
C         91.33719        4.17883        2.63136
C         92.35092        3.76605        3.67429
O         93.06920        2.80009        3.46064
H         91.78182        3.75806        0.59362
H         90.30892        4.21277        3.05068
H         91.61345        5.21159        2.32733
N         92.52400        4.48223        4.82895
C         91.72475        5.64425        5.21706
C         91.10261        5.43953        6.58596
O         91.80099        5.08735        7.52843
C         92.54186        6.95087        5.26082
C         93.02062        7.39217        3.90082
N         93.99759        6.72172        3.25158
O         92.52811        8.38608        3.38613
H         93.27885        4.19069        5.47069
H         90.91148        5.84286        4.49109
H         93.39303        6.89026        5.97122
H         91.84916        7.74250        5.63350
H         94.44994        5.90263        3.67967
H         94.31971        7.04144        2.32621
N         89.80079        5.78343        6.78097
C         89.17414        5.77853        8.09715
C         87.84150        6.52752        8.20512
O         87.29502        6.52051        9.29759
H         89.29878        6.11489        5.95540
H         89.85383        6.28621        8.81790
H         89.04982        4.72429        8.42730
N         87.27143        7.22247        7.16905
C         86.03526        7.98948        7.27008
C         85.00288        7.38891        6.33100
O         85.27045        7.23415        5.14788
C         86.29860        9.47793        6.93521
C         87.18697       10.13631        7.99413
O         86.91691        9.61524        5.68003
H         87.70928        7.25611        6.24708
H         85.62664        7.95744        8.30395
H         85.33120       10.03381        6.95160
H         86.19846        9.62853        4.99660
H         88.18104        9.64364        8.04318
H         87.33422       11.20903        7.74619
H         86.70384       10.07391        8.99314
N         83.79610        6.99334        6.82179
C         82.78776        6.30696        6.02043
C         82.26045        7.20229        4.90284
O         81.68731        8.24662        5.17767
C         81.62554        5.78973        6.92836
C         80.50036        5.14400        6.07283
C         82.17931        4.77499        7.95700
C         79.31259        4.62678        6.88341
H         83.60951        7.15524        7.82154
H         83.25994        5.40479        5.57150
H         81.18988        6.65458        7.47718
H         80.91350        4.31120        5.46962
H         80.09164        5.90496        5.37527
H         81.39333        4.44991        8.66564
H         82.59255        3.88362        7.43913
H         82.98279        5.20888        8.58390
H         78.87605        5.44707        7.49137
H         78.53642        4.24350        6.18818
H         79.60733        3.78680        7.54357
N         82.37656        6.78766        3.60869
C         81.81337        7.45880        2.44721
C         80.75466        6.59222        1.74840
O         80.24923        7.03536        0.72561
C         82.95565        7.85761        1.48646
C         83.74171        6.68535        0.96637
O         85.05400        6.57647        1.24897
O         83.20202        5.83969        0.27240
H         82.88310        5.92152        3.42542
H         81.30438        8.39932        2.75112
H         83.64568        8.53690        2.03255
H         82.54406        8.42035        0.62064
N         80.31804        5.39351        2.25671
C         79.21297        4.63782        1.66745
C         79.49116        3.12903        1.68715
O         78.81069        2.41914        2.41887
C         77.90599        5.00813        2.41459
C         76.67239        4.42330        1.75024
C         76.35622        4.75244        0.41679
C         75.81894        3.55586        2.45545
C         75.22162        4.21615       -0.19794
C         74.68053        3.02544        1.83618
C         74.38410        3.35331        0.51056
H         80.67787        5.06503        3.16235
H         79.04642        4.95536        0.62051
H         77.78902        6.11357        2.40723
H         77.98245        4.68857        3.47785
H         76.98408        5.42453       -0.15307
H         76.03126        3.29002        3.48309
H         74.99117        4.47219       -1.22448
H         74.02616        2.35941        2.38352
H         73.50437        2.94159        0.03221
N         80.43424        2.53382        0.88840
C         80.57863        1.08338        0.76919
C         81.11667        0.36263        1.99600
O         81.19179       -0.85691        1.96794
C         81.52564        0.90378       -0.42228
C         81.20914        2.13889       -1.24935
C         81.17021        3.20346       -0.16078
H         79.57378        0.68002        0.50607
H         82.58099        1.01303       -0.07839
H         81.42424       -0.07018       -0.94719
H         81.92353        2.34678       -2.07027
H         80.18725        2.02891       -1.68065
H         82.20162        3.39357        0.20489
H         80.72200        4.14586       -0.52858
N         81.53070        1.04720        3.09856
C         82.01374        0.39635        4.31154
C         80.86503       -0.36455        4.93206
O         80.98628       -1.56509        5.13453
C         82.56412        1.43152        5.32405
C         83.92547        2.04063        4.93043
C         83.93220        2.74345        3.61029
O         84.76601        2.34153        2.63827
O         83.19269        3.68535        3.41211
H         81.47598        2.06946        3.08449
H         82.84538       -0.30587        4.07438
H         82.73818        0.92252        6.29764
H         81.81307        2.22784        5.49626
H         84.68840        1.23372        4.90078
H         84.22678        2.76979        5.71354
N         79.70181        0.27976        5.23054
C         78.54234       -0.37803        5.79345
H         77.69218       -0.28343        5.08552
H         78.71962       -1.45665        5.98688
H         78.27104        0.11367        6.75024
H         79.61956        1.28804        5.02849
Ca        84.89754        3.46073        0.68488
O         87.53038        3.12795        2.58500
H         87.16913        3.37838        3.47189
H         87.44238        2.14183        2.55086
O         84.55204        2.77785       -2.15993
H         84.55159        3.12918       -3.08519
H         84.33116        1.81736       -2.25522
O         85.49263        0.37518        0.64640
H         85.99979       -0.28985        0.11831
H         85.84301        0.27480        1.56683
O         85.86335        5.66538       -1.59299
H         86.34521        5.38237       -2.41015
H         85.46564        6.54111       -1.82816

Ca 1.0



