%chk=apoCaM-CA-Ng.loop2.water3.frame1034.chk
%nprocshared=20
%mem=10GB
%nosave
#b3lyp/svp scf=(tight,noincore,xqc) Test 
#IOP(5/87=12) Density=Current Pop=(MK,readradii) iop(6/33=2) iop(6/42=6)

apoCaM-CA-Ng.loop2.water3.frame1034 

   -2  1 
C         11.16073       51.25604       75.49052
C         11.04180       49.77303       75.72708
O         11.95975       49.05297       75.36268
H         12.12532       51.49205       74.99256
H         10.34526       51.62360       74.83829
H         11.13245       51.79514       76.46013
N          9.97047       49.21122       76.35937
C          8.82311       49.97111       76.85588
C          8.00641       50.60064       75.73175
O          8.19191       50.24720       74.57775
C          7.92716       49.09259       77.76217
C          7.50650       47.80151       77.11194
O          7.84441       46.62417       77.67239
O          6.88053       47.80843       76.06943
H         10.00749       48.19367       76.52742
H          9.21157       50.79670       77.49120
H          7.02694       49.66393       78.07628
H          8.49930       48.83546       78.67918
N          7.13001       51.60843       76.03370
C          6.31700       52.39305       75.10162
C          5.07511       51.65890       74.62279
O          3.98099       52.09405       74.95526
C          7.13754       52.97168       73.93785
H          7.08679       51.90712       77.02029
H          5.94259       53.27040       75.67850
H          6.50212       53.65133       73.33026
H          7.99791       53.55399       74.33010
H          7.52033       52.18231       73.26021
N          5.15509       50.57057       73.81343
C          3.99617       49.86389       73.27618
C          3.97267       48.41971       73.74459
O          4.84475       48.01519       74.49314
C          3.97202       50.01517       71.72881
C          5.31142       50.00697       71.00910
O          5.63689       50.99859       70.37573
O          6.16196       48.96241       71.02261
H          6.08116       50.23000       73.53050
H          3.04063       50.29007       73.65520
H          3.53564       51.01890       71.52783
H          3.27949       49.28026       71.26943
N          2.95940       47.58945       73.36394
C          2.87103       46.17620       73.70553
C          3.97030       45.36308       73.00090
O          5.20544       45.52618       73.62115
H          2.19435       47.97746       72.79248
H          1.89426       45.80807       73.32359
H          2.88150       46.01875       74.80667
N          3.61510       43.95134       72.85124
C          4.71597       43.08060       72.38314
C          5.48330       43.66121       71.19181
O          4.86893       44.19603       70.27888
C          4.12668       41.70176       72.02073
C          5.18512       40.64022       71.86903
N          5.92779       40.25966       72.93627
O          5.35242       40.09750       70.78761
H          2.83483       43.92121       72.15361
H          5.41379       42.93828       73.23739
H          3.52738       41.79867       71.08764
H          3.44427       41.36140       72.82909
H          5.77813       40.68746       73.86235
H          6.63814       39.51884       72.84628
N          6.83882       43.52906       71.12127
C          7.64497       44.03827       70.02263
C          7.79084       45.54274       70.11544
O          8.24340       45.99211       71.15751
H          7.32374       42.99708       71.85866
H          7.23305       43.67139       69.06350
H          8.67225       43.62491       70.11979
N          7.49101       46.41457       69.10561
C          7.07274       46.03201       67.76090
C          8.14441       45.17868       67.11646
O          7.79657       44.13402       66.58233
C          6.75252       47.26183       66.87303
C          5.52631       48.02580       67.39225
O          7.86189       48.11994       66.79581
H          7.62456       47.41900       69.30100
H          6.13178       45.43838       67.81390
H          6.49909       46.87890       65.85490
H          7.74524       48.66657       65.97460
H          4.64351       47.35109       67.42849
H          5.70353       48.43454       68.40638
H          5.28637       48.86852       66.70996
N          9.47199       45.50385       67.21381
C         10.52335       44.61206       66.72682
C         11.28564       44.00350       67.91085
O         11.12578       44.49460       69.01983
C         11.50702       45.34914       65.75736
C         12.46674       46.31202       66.51423
C         10.74218       46.06205       64.62945
C         13.58279       46.86004       65.63470
H          9.74431       46.36192       67.71687
H         10.03572       43.78982       66.17007
H         12.14370       44.57984       65.27970
H         12.99260       45.75280       67.31624
H         11.90994       47.14976       66.98295
H         10.08105       45.34394       64.10158
H         10.12503       46.89106       65.03655
H         11.44000       46.48156       63.87674
H         13.18068       47.53138       64.85511
H         14.29209       47.44884       66.25441
H         14.14129       46.01819       65.16739
N         12.18429       42.98062       67.78020
C         12.36448       42.18312       66.57499
C         13.68645       42.48618       65.88675
O         14.57833       43.08284       66.47417
C         12.20310       40.69310       66.95390
C         12.27221       39.74634       65.79028
O         13.22702       38.79735       65.75138
O         11.45008       39.81333       64.89047
H         12.73567       42.71345       68.61173
H         11.57809       42.42114       65.83981
H         11.21526       40.55215       67.44619
H         12.99197       40.42231       67.68968
N         13.80780       42.17056       64.56756
C         14.97415       42.42256       63.72508
C         14.61660       41.97985       62.30377
O         14.18975       40.83811       62.16861
C         16.18555       41.59458       64.21175
C         17.38933       41.86402       63.34137
C         17.80182       40.91497       62.39137
C         18.09008       43.07805       63.45025
C         18.88775       41.18255       61.55362
C         19.18553       43.33544       62.61948
C         19.58032       42.39059       61.66831
H         12.98105       41.74415       64.12261
H         15.22492       43.50474       63.75569
H         15.90501       40.51901       64.16276
H         16.45274       41.80823       65.26851
H         17.26777       39.97939       62.28234
H         17.78906       43.82207       64.17767
H         19.18861       40.45438       60.81178
H         19.72487       44.26971       62.70826
H         20.42138       42.59471       61.01851
N         14.74548       42.76263       61.18857
C         15.37828       44.07205       61.10169
C         14.43689       45.19039       61.48647
O         13.32875       44.92866       61.93557
C         15.74259       44.15327       59.61124
C         14.54795       43.48634       58.96570
C         14.36015       42.28019       59.87521
H         16.31402       44.14292       61.69173
H         15.98686       45.16429       59.22378
H         16.62402       43.49560       59.42981
H         13.67579       44.16991       59.08879
H         14.64892       43.23593       57.88973
H         13.30115       41.94145       59.83605
H         15.04054       41.44619       59.59661
N         14.83392       46.48774       61.32479
C         13.97006       47.60717       61.65434
C         14.78670       48.89658       61.82476
O         14.47135       49.88978       61.18525
C         12.87859       47.71749       60.55150
C         11.68974       48.61942       60.91459
C         10.72937       48.70936       59.75905
O         10.44232       49.90662       59.21289
O         10.20689       47.70178       59.30803
H         15.78034       46.67726       60.96434
H         13.49942       47.39435       62.63366
H         12.45580       46.71133       60.34528
H         13.36175       48.06934       59.61151
H         12.02647       49.64250       61.17373
H         11.16118       48.19116       61.79340
N         15.84956       48.99899       62.67998
C         16.41137       47.90657       63.44892
H         17.23779       48.28161       64.08858
H         15.64756       47.44398       64.09153
H         16.85747       47.14204       62.78428
H         16.30764       49.91839       62.77927
Ca         5.96524       47.08279       72.19423
O          8.04265       44.60843       74.21052
H          8.23009       43.66130       73.99271
H          7.54903       44.57177       75.06787
O         10.03586       47.07723       73.71722
H         10.78476       47.41171       73.16259
H         10.36596       46.21934       74.08448
O          9.04094       49.25737       71.66254
H          8.74223       49.84866       70.92689
H          9.53353       48.52891       71.20795

Ca 1.0



