%chk=apoCaM-CA-Ng.loop3.water3.frame917.chk
%nprocshared=20
%mem=10GB
%nosave
#b3lyp/svp scf=(tight,noincore,xqc) Test 
#IOP(5/87=12) Density=Current Pop=(MK,readradii) iop(6/33=2) iop(6/42=6)

apoCaM-CA-Ng.loop3.water3.frame917 

   0  1 
C        -18.71402        2.48647       15.47878
C        -19.94298        1.70562       15.12471
O        -20.09364        1.30013       13.98073
H        -18.05496        2.61154       14.59425
H        -19.00453        3.48826       15.85907
H        -18.15297        1.94640       16.27086
N        -20.87004        1.44371       16.08471
C        -22.07346        0.65444       15.83742
C        -22.96548        1.36882       14.81768
O        -22.88450        2.58802       14.74125
C        -22.79419        0.43518       17.18939
C        -23.77153       -0.69542       17.21103
O        -24.44365       -0.88250       18.21237
O        -23.87106       -1.55716       16.18690
H        -20.68498        1.79748       17.03726
H        -21.73859       -0.32237       15.43395
H        -23.28938        1.38463       17.49075
H        -22.05248        0.17531       17.97520
N        -23.82236        0.68980       13.99174
C        -24.61910        1.35611       12.95359
C        -26.11276        1.37823       13.29580
O        -26.85599        2.08522       12.63127
C        -24.36743        0.66376       11.59205
C        -24.76795        1.52770       10.37805
C        -24.66671        0.77116        9.04180
C        -25.82358       -0.22986        8.86028
N        -25.74926       -0.89682        7.56094
H        -23.89402       -0.33133       14.08147
H        -24.29082        2.41534       12.88254
H        -24.89638       -0.31142       11.60420
H        -23.28017        0.45442       11.47896
H        -24.06812        2.39210       10.35355
H        -25.79567        1.93087       10.46030
H        -23.67918        0.26632        8.95628
H        -24.74448        1.51681        8.22065
H        -26.78742        0.32483        8.92275
H        -25.81453       -0.99812        9.66115
H        -24.88063       -1.47599        7.50537
H        -26.58139       -1.52104        7.45095
H        -25.75634       -0.19133        6.78860
N        -26.62208        0.64395       14.32565
C        -28.01527        0.69086       14.76847
C        -28.06147        1.18108       16.21180
O        -28.78919        2.12907       16.47370
C        -28.75386       -0.64523       14.47552
C        -28.00234       -1.89099       14.83263
O        -27.56779       -2.60693       13.94463
O        -27.73445       -2.20403       16.10265
H        -25.99231        0.01628       14.84038
H        -28.59731        1.43831       14.18288
H        -28.88981       -0.67904       13.37138
H        -29.76645       -0.64938       14.93246
N        -27.24032        0.66791       17.17390
C        -27.14615        1.20466       18.52593
C        -27.36479        0.15861       19.59566
O        -27.23529        0.50054       20.76276
H        -26.59221       -0.09041       16.93006
H        -27.86754        2.03431       18.69284
H        -26.12293        1.61616       18.65901
N        -27.71951       -1.12158       19.28859
C        -27.98795       -2.15035       20.28289
C        -27.17560       -3.41061       20.01959
O        -26.51863       -3.51644       18.99452
C        -29.50177       -2.45849       20.23525
C        -29.92778       -3.02350       18.89402
N        -30.68124       -2.29481       18.03808
O        -29.57131       -4.14650       18.57169
H        -27.87291       -1.37513       18.30940
H        -27.73720       -1.77720       21.29989
H        -30.03546       -1.50140       20.42513
H        -29.79969       -3.16633       21.03749
H        -30.97475       -1.33615       18.27336
H        -30.94699       -2.68222       17.12006
N        -27.22672       -4.43510       20.91201
C        -26.69475       -5.76625       20.67468
C        -25.23136       -5.81707       20.29481
O        -24.39359       -5.27865       21.00357
H        -27.73878       -4.28959       21.79537
H        -27.30193       -6.24833       19.87808
H        -26.83709       -6.36651       21.59847
N        -24.86017       -6.55412       19.20705
C        -23.47452       -6.79314       18.80799
C        -22.86548       -5.56425       18.16423
O        -23.55177       -4.56154       18.01859
C        -23.42383       -7.97738       17.80818
C        -24.03270       -9.22393       18.40866
C        -25.21020       -9.76423       17.86561
C        -23.44365       -9.84562       19.52370
C        -25.79749      -10.89585       18.43664
C        -24.03025      -10.98193       20.08999
C        -25.21042      -11.50750       19.55327
O        -25.77194      -12.59508       20.11850
H        -25.60444       -7.04383       18.68722
H        -22.88056       -7.07376       19.70590
H        -22.38161       -8.21161       17.50419
H        -23.98081       -7.68158       16.89130
H        -25.68353       -9.30069       17.00900
H        -22.53317       -9.45060       19.95681
H        -26.71145      -11.29221       18.01299
H        -23.57016      -11.45086       20.95086
H        -26.59460      -12.98073       19.78461
N        -21.56589       -5.58930       17.74230
C        -20.87232       -4.49959       17.05889
C        -21.49582       -4.25592       15.68570
O        -22.67935       -3.97323       15.61240
C        -20.83068       -3.19596       17.91939
C        -19.93320       -2.09432       17.28826
C        -20.39929       -3.47735       19.37092
C        -18.44276       -2.43836       17.17384
H        -21.01301       -6.44251       17.91923
H        -19.82438       -4.83369       16.91492
H        -21.85601       -2.77439       17.97681
H        -20.01772       -1.17384       17.90568
H        -20.30453       -1.85367       16.27306
H        -21.11655       -4.16398       19.86670
H        -19.39364       -3.94121       19.41653
H        -20.39508       -2.53294       19.95658
H        -17.99924       -2.64828       18.16823
H        -18.27431       -3.30444       16.50399
H        -17.90142       -1.57104       16.74099
N        -20.73752       -4.30251       14.55044
C        -21.28342       -4.00252       13.22787
C        -20.83428       -5.01560       12.18879
O        -19.67294       -5.39320       12.17897
C        -20.83709       -2.59898       12.80214
O        -21.41243       -2.27555       11.56388
H        -19.72344       -4.46143       14.63649
H        -22.39216       -3.97475       13.25139
H        -19.72892       -2.55311       12.72881
H        -21.19355       -1.87615       13.57089
H        -21.20432       -1.31994       11.39910
N        -21.68175       -5.36019       11.17355
C        -21.25972       -6.16219       10.02580
C        -22.25161       -5.97641        8.87752
O        -23.43801       -6.14117        9.11923
C        -21.13804       -7.64213       10.39019
H        -22.61904       -4.93115       11.16573
H        -20.26195       -5.80099        9.73440
H        -22.11859       -8.05376       10.70880
H        -20.78162       -8.21000        9.50229
H        -20.40049       -7.78424       11.20662
N        -21.89614       -5.59034        7.61116
C        -20.53752       -5.50495        7.07487
C        -20.44278       -6.32476        5.78089
O        -21.48117       -6.78355        5.31951
C        -20.19312       -4.02600        6.87492
H        -22.66712       -5.36911        6.95875
H        -19.82001       -5.94423        7.77451
H        -20.88110       -3.55880        6.14030
H        -20.29518       -3.49679        7.84718
H        -19.15535       -3.86887        6.54236
N        -19.28090       -6.61633        5.11736
C        -17.92234       -6.25254        5.51906
C        -17.59638       -6.84992        6.87115
O        -17.23737       -6.10531        7.77388
C        -16.88117       -6.74029        4.48211
C        -17.05927       -6.07037        3.10789
C        -15.98396       -6.50858        2.15520
O        -14.69050       -6.25458        2.43270
O        -16.27641       -7.08304        1.11857
H        -19.38125       -7.18853        4.26462
H        -17.81231       -5.15388        5.55875
H        -16.93631       -7.84543        4.36689
H        -15.86779       -6.48032        4.86288
H        -17.00219       -4.96620        3.21684
H        -18.05119       -6.32666        2.67950
N        -17.72058       -8.18985        7.08543
C        -17.45052       -8.82395        8.35984
H        -17.11177       -8.10058        9.13117
H        -18.37527       -9.31649        8.72704
H        -16.66098       -9.59246        8.22812
H        -18.04019       -8.79527        6.31413
Ca       -25.63667       -2.90681       16.29327
O        -27.27885       -5.57947       16.42554
H        -27.49312       -6.45760       16.82820
H        -27.61580       -4.91888       17.07878
O        -24.79648       -5.81337       14.68051
H        -25.57670       -6.39391       14.49619
H        -24.03755       -6.27059       14.23890
O        -24.83354       -2.81442       13.09601
H        -23.99540       -2.32903       12.89731
H        -25.25960       -2.93750       12.21126

Ca 1.0



