%chk=apoCaM-CA-Ng.loop3.water4.frame109.chk
%nprocshared=20
%mem=10GB
%nosave
#b3lyp/svp scf=(tight,noincore,xqc) Test 
#IOP(5/87=12) Density=Current Pop=(MK,readradii) iop(6/33=2) iop(6/42=6)

apoCaM-CA-Ng.loop3.water4.frame109 

   0  1 
C         39.70756       86.38664       97.35671
C         40.28399       87.65279       97.91609
O         39.66130       88.69883       97.80926
H         38.72043       86.57293       96.88378
H         40.39896       85.97464       96.59076
H         39.58511       85.64151       98.17057
N         41.50305       87.62126       98.52019
C         42.19136       88.78085       99.07264
C         42.46886       89.80734       97.97942
O         42.22059       90.99045       98.16800
C         41.41902       89.33035      100.29897
C         42.15820       90.41932      101.02553
O         41.59639       91.63520      101.16894
O         43.25807       90.20206      101.50806
H         41.99513       86.71543       98.57307
H         43.18195       88.42220       99.43229
H         41.25300       88.49862      101.01796
H         40.42467       89.71254       99.98521
N         42.97137       89.39201       96.78014
C         43.32423       90.28958       95.68568
C         42.29782       90.12713       94.57741
O         42.64448       89.75850       93.46176
C         44.72405       89.91085       95.15634
C         45.82387       89.82261       96.21928
C         47.08512       89.24052       95.56626
C         48.20002       88.98384       96.58026
N         49.35257       88.36849       95.92144
H         43.08914       88.37940       96.62093
H         43.31491       91.34977       96.02315
H         45.02694       90.61993       94.35398
H         44.63425       88.89407       94.70981
H         45.50252       89.12680       97.02463
H         46.02209       90.82092       96.66528
H         47.44587       89.92934       94.77139
H         46.82653       88.26415       95.09728
H         47.82663       88.29665       97.37270
H         48.50417       89.94216       97.05420
H         49.72318       89.00325       95.17735
H         50.10214       88.19442       96.62821
H         49.07550       87.45422       95.49335
N         40.98299       90.33504       94.84668
C         39.92441       90.03051       93.89813
C         39.08171       91.27626       93.65739
O         38.69045       91.92827       94.61592
C         39.11877       88.85019       94.47074
C         38.15725       88.28303       93.46872
O         37.23513       89.09891       92.95752
O         38.19300       87.10707       93.14458
H         40.71102       90.64266       95.79379
H         40.34322       89.67626       92.93024
H         38.57024       89.18529       95.37638
H         39.81972       88.04013       94.76877
N         38.74847       91.65016       92.38844
C         38.00822       92.85908       92.05440
C         36.71545       93.01642       92.82910
O         36.56038       94.04661       93.47046
H         39.03808       91.04701       91.60367
H         37.78859       92.85633       90.96489
H         38.65443       93.74227       92.25783
N         35.75557       92.04401       92.84332
C         34.50650       92.17880       93.59772
C         34.43946       91.27599       94.83390
O         33.45662       91.36374       95.55708
C         33.26762       91.94158       92.69704
C         33.05508       90.46555       92.28114
N         31.64005       90.14808       92.13762
O         33.71491       90.16037       91.08474
H         35.93687       91.17769       92.32552
H         34.42509       93.21758       93.98494
H         33.26122       92.61147       91.80961
H         32.39850       92.24091       93.32204
H         31.17903       90.29021       93.06569
H         31.56465       89.12574       91.93191
N         35.42933       90.39303       95.14796
C         35.39987       89.48950       96.29251
C         34.23803       88.51521       96.26881
O         33.39027       88.59142       95.38932
H         36.26611       90.36587       94.56556
H         35.35766       90.08021       97.23162
H         36.33953       88.89581       96.29789
N         34.13646       87.56092       97.24200
C         32.99126       86.65629       97.34455
C         32.81519       85.79318       96.10967
O         33.69365       85.73864       95.26168
C         33.12801       85.70016       98.55547
C         33.20179       86.38840       99.89319
C         34.32414       86.20963      100.71998
C         32.13379       87.17909      100.34655
C         34.37585       86.81198      101.97989
C         32.18807       87.78152      101.60671
C         33.30954       87.59758      102.42891
O         33.37074       88.16404      103.65066
H         34.88022       87.51057       97.95541
H         32.07963       87.28376       97.45478
H         34.03074       85.06722       98.39874
H         32.25224       85.01799       98.59926
H         35.15579       85.59581      100.39608
H         31.25485       87.31999       99.73041
H         35.24312       86.66107      102.61051
H         31.35503       88.38412      101.94539
H         32.65074       88.70674      104.00232
N         31.65894       85.08755       95.96194
C         31.38412       84.18503       94.85439
C         30.31941       84.81419       93.96959
O         30.56821       84.95784       92.77991
C         30.98659       82.78017       95.39873
C         32.01999       82.21507       96.41560
C         30.76820       81.77199       94.25435
C         33.45061       82.07025       95.88303
H         30.92294       85.20534       96.67505
H         32.29212       84.05018       94.22599
H         30.02352       82.87428       95.94926
H         31.67129       81.21775       96.76345
H         32.05616       82.87298       97.30940
H         30.45540       80.78847       94.66686
H         29.97495       82.11027       93.56548
H         31.68910       81.63317       93.65338
H         33.87352       83.05685       95.60803
H         34.09515       81.63912       96.67757
H         33.49344       81.39544       95.00532
N         29.14226       85.28700       94.48290
C         28.17003       86.00257       93.65659
C         27.41083       85.08745       92.70746
O         26.68351       85.60849       91.87374
C         27.18626       86.80188       94.52171
O         27.89922       87.71992       95.30771
H         28.97746       85.21892       95.49827
H         28.72602       86.75062       93.04549
H         26.60170       86.12124       95.17670
H         26.48983       87.35078       93.84357
H         27.27164       88.45653       95.52817
N         27.55485       83.72730       92.73895
C         26.93570       82.80480       91.78873
C         27.42799       83.01001       90.35718
O         26.95705       82.29426       89.48033
C         25.40486       82.86495       91.88536
H         28.13929       83.30289       93.46699
H         27.22653       81.76928       92.07624
H         25.08912       82.65792       92.93028
H         25.00327       83.84984       91.57632
H         24.95211       82.08800       91.23244
N         28.39198       83.92485       90.04032
C         28.91274       84.13900       88.70042
C         30.39344       83.82271       88.67170
O         30.95300       83.47338       89.70631
C         28.66284       85.59711       88.29950
H         28.82416       84.49828       90.77607
H         28.40406       83.47775       87.96485
H         29.17741       86.28652       89.00426
H         29.03032       85.79940       87.27232
H         27.57341       85.81219       88.32607
N         31.09519       83.89638       87.50620
C         32.51542       83.58581       87.39403
C         32.75358       82.15333       87.84410
O         33.54165       81.91693       88.74943
C         33.37239       84.60964       88.18199
C         33.15085       86.04693       87.68859
C         33.95134       87.01832       88.50618
O         33.71709       87.13622       89.82661
O         34.80283       87.71615       87.97945
H         30.59660       84.16013       86.64133
H         32.80979       83.65646       86.32324
H         34.44860       84.35500       88.05924
H         33.13115       84.55427       89.26454
H         32.07960       86.32616       87.78104
H         33.44404       86.11647       86.61796
N         32.05482       81.14257       87.25463
C         32.16554       79.75425       87.65437
H         32.89075       79.60647       88.48184
H         31.17199       79.39477       87.99686
H         32.48930       79.14447       86.78620
H         31.39097       81.36660       86.49829
Ca        35.42062       88.81233       91.70895
O         36.51285       90.41938       89.43406
H         35.82929       91.11991       89.58199
H         37.36548       90.91590       89.35715
O         36.61280       85.28983       90.02089
H         36.19809       84.42021       90.24898
H         37.54739       85.06404       89.78449
O         38.35241       87.97201       89.98750
H         38.93770       87.20738       90.21741
H         38.91891       88.77002       90.13694
O         34.51999       85.86921       92.36093
H         33.89314       85.10317       92.33670
H         35.18592       85.62801       93.05262

Ca 1.0



