%chk=apoCaM-CA-Ng.loop3.water3.frame883.chk
%nprocshared=20
%mem=10GB
%nosave
#b3lyp/svp scf=(tight,noincore,xqc) Test 
#IOP(5/87=12) Density=Current Pop=(MK,readradii) iop(6/33=2) iop(6/42=6)

apoCaM-CA-Ng.loop3.water3.frame883 

   0  1 
C        125.66006        0.27662       -9.86389
C        126.92484        0.61854      -10.58845
O        126.94449        1.61904      -11.28986
H        124.84199        0.11702      -10.59540
H        125.78121       -0.64065       -9.25062
H        125.39145        1.11653       -9.18878
N        128.02437       -0.17748      -10.47220
C        129.31231        0.13298      -11.08159
C        129.57096       -0.86863      -12.20194
O        128.87835       -1.87515      -12.27501
C        130.35505        0.11659       -9.93290
C        131.71968        0.73612      -10.08942
O        132.47527        0.68018       -9.13166
O        132.14106        1.39227      -11.18353
H        127.95297       -1.04460       -9.91665
H        129.27366        1.13994      -11.52398
H        130.48078       -0.93673       -9.60092
H        129.91488        0.67865       -9.08207
N        130.52142       -0.63421      -13.14361
C        130.81757       -1.54743      -14.24916
C        132.15111       -2.22408      -13.98425
O        132.26012       -3.42096      -14.21069
C        130.72233       -0.79392      -15.59450
C        131.02735       -1.68400      -16.81673
C        130.88426       -0.94144      -18.16065
C        129.42863       -0.57916      -18.50953
N        129.35302        0.09382      -19.80731
H        131.06089        0.23823      -13.07396
H        130.06420       -2.36563      -14.29486
H        131.41914        0.06881      -15.59881
H        129.68543       -0.40584      -15.67137
H        130.37086       -2.58161      -16.82395
H        132.08133       -2.02660      -16.73533
H        131.26491       -1.61111      -18.96305
H        131.51561       -0.02636      -18.14861
H        128.99451        0.09062      -17.73865
H        128.82071       -1.51088      -18.54795
H        129.74271       -0.51943      -20.55977
H        128.35221        0.30211      -20.02865
H        129.88482        0.99394      -19.77545
N        133.14955       -1.55413      -13.34872
C        134.34292       -2.18066      -12.80129
C        134.28955       -2.05280      -11.27746
O        133.26002       -1.64651      -10.75759
C        135.58709       -1.60011      -13.50919
C        135.68080       -0.09965      -13.52723
O        135.63197        0.50134      -14.58830
O        135.85614        0.59065      -12.39467
H        133.03904       -0.55142      -13.14750
H        134.36673       -3.27409      -13.00377
H        135.52644       -1.93824      -14.56703
H        136.51721       -2.02752      -13.08256
N        135.33485       -2.41338      -10.48572
C        135.27279       -2.37941       -9.02919
C        136.04520       -1.21958       -8.44883
O        136.29408       -1.23555       -7.25156
H        136.22229       -2.70652      -10.91859
H        135.69345       -3.33918       -8.65685
H        134.23328       -2.31361       -8.64088
N        136.42916       -0.16167       -9.22246
C        137.24608        0.93708       -8.73660
C        136.46548        2.28412       -8.79111
O        136.35127        2.77995      -10.10120
C        138.55532        0.99366       -9.56376
C        139.35948       -0.28232       -9.45503
N        140.61290       -0.26693       -8.94607
O        138.88238       -1.33860       -9.84350
H        136.15737       -0.14174      -10.20763
H        137.51069        0.76376       -7.66999
H        139.17860        1.84518       -9.22528
H        138.31570        1.16214      -10.63682
H        141.04182        0.61068       -8.61923
H        141.15890       -1.13865       -8.87938
N        137.06530        3.26402       -7.85962
C        136.89474        4.69133       -8.15244
C        135.46434        5.16842       -8.14860
O        134.71551        4.84431       -7.23788
H        138.09551        3.10979       -7.77128
H        137.42466        4.97141       -9.08995
H        137.39722        5.24467       -7.32937
N        135.06862        6.07253       -9.08781
C        133.76486        6.73507       -9.08151
C        132.66566        5.78463       -9.52009
O        132.95441        4.62175       -9.76016
C        133.82333        7.99302       -9.98483
C        134.92156        8.93489       -9.53085
C        134.89959        9.49856       -8.24097
C        135.98958        9.24312      -10.39039
C        135.93318       10.33978       -7.81753
C        137.02022       10.08731       -9.96543
C        136.99930       10.63458       -8.67866
O        138.00709       11.43766       -8.28135
H        135.76903        6.37618       -9.78219
H        133.53590        7.08373       -8.05099
H        132.86349        8.54896       -9.95270
H        133.99573        7.67236      -11.03598
H        134.08891        9.28281       -7.55700
H        136.03093        8.82339      -11.38743
H        135.90635       10.75812       -6.81888
H        137.83999       10.31123      -10.63618
H        138.03613       11.82854       -7.39630
N        131.37180        6.21807       -9.63397
C        130.23483        5.38441      -10.02994
C        130.39714        4.87162      -11.46431
O        131.43471        4.31573      -11.78839
C        129.98742        4.23243       -9.01019
C        128.69772        3.43387       -9.33234
C        129.94296        4.75578       -7.56218
C        127.38055        4.21945       -9.24916
H        131.16198        7.20107       -9.40567
H        129.33535        6.03394       -9.99719
H        130.83316        3.51450       -9.06855
H        128.61991        2.58049       -8.62602
H        128.79284        3.02242      -10.35282
H        130.90825        5.22740       -7.28458
H        129.14245        5.51210       -7.42866
H        129.76970        3.91463       -6.85742
H        127.20930        4.61106       -8.22683
H        127.34986        5.05688       -9.97196
H        126.53447        3.54437       -9.49196
N        129.37667        4.97347      -12.36735
C        129.49598        4.50488      -13.75080
C        129.06277        5.54670      -14.77537
O        129.26144        5.30407      -15.95944
C        128.66191        3.22876      -13.92112
O        128.84449        2.68168      -15.19882
H        128.46877        5.32660      -12.03624
H        130.55461        4.25231      -13.96988
H        127.58471        3.45151      -13.75192
H        129.01333        2.50209      -13.16682
H        128.44776        1.77223      -15.16954
N        128.41302        6.69317      -14.42507
C        127.90582        7.63234      -15.41683
C        129.03997        8.39007      -16.09603
O        130.12296        8.43805      -15.52906
C        126.98087        8.63357      -14.71827
H        128.20044        6.88012      -13.43697
H        127.30008        7.06052      -16.14720
H        126.57600        9.36107      -15.42899
H        126.13122        8.09546      -14.24499
H        127.53202        9.19600      -13.93509
N        128.88707        9.08308      -17.26609
C        127.72819        9.00225      -18.15487
C        127.75447       10.14309      -19.16662
O        128.76366       10.28846      -19.84353
C        127.76665        7.68024      -18.93752
H        129.69107        9.65172      -17.57705
H        126.79248        9.03073      -17.57780
H        126.88887        7.61852      -19.61678
H        128.69267        7.61693      -19.54928
H        127.74413        6.79809      -18.27142
N        126.69643       10.97686      -19.39791
C        125.39461       10.90066      -18.74167
C        125.48766       11.30640      -17.28475
O        124.88707       10.64464      -16.45065
C        124.36723       11.77730      -19.48873
C        122.93436       11.54024      -18.98006
C        121.93675       12.28518      -19.81828
O        121.98160       13.62859      -19.89233
O        121.07778       11.67508      -20.43574
H        126.81432       11.68144      -20.14418
H        125.01085        9.85920      -18.83296
H        124.39035       11.48104      -20.56144
H        124.63938       12.85339      -19.41548
H        122.83594       11.86528      -17.92292
H        122.70521       10.45186      -19.03490
N        126.22982       12.38296      -16.90395
C        126.37012       12.77001      -15.51630
H        127.04988       13.64489      -15.43339
H        125.38066       13.04261      -15.09373
H        126.80659       11.93267      -14.92962
H        126.73757       12.92943      -17.61577
Ca       134.25365        2.18238      -10.84654
O        133.86932        5.22845      -13.43536
H        133.08480        5.51843      -13.96549
H        134.63709        5.69292      -13.85381
O        136.60533        3.67002      -12.97955
H        137.26014        4.38372      -12.77379
H        136.57162        3.63964      -13.96860
O        132.80709        2.39394      -14.49496
H        133.07727        1.44699      -14.58701
H        131.99482        2.36223      -13.93119

Ca 1.0



