%chk=apoCaM-CA-Ng.loop1.water5.frame332.chk
%nprocshared=20
%mem=10GB
%nosave
#b3lyp/svp scf=(tight,noincore,xqc) Test 
#IOP(5/87=12) Density=Current Pop=(MK,readradii) iop(6/33=2) iop(6/42=6)

apoCaM-CA-Ng.loop1.water5.frame332 

   0  1 
C         59.73772       66.63887       86.07294
C         60.49145       67.89270       85.75067
O         61.52240       67.81482       85.09681
H         58.73990       66.68327       85.58840
H         60.27827       65.74617       85.69046
H         59.61039       66.53930       87.17061
N         60.03713       69.09732       86.19924
C         60.68182       70.36033       85.86555
C         61.42975       70.92529       87.06981
O         61.47246       72.13104       87.22346
C         59.62080       71.36097       85.33372
C         58.89344       70.88099       84.10838
O         58.13329       69.77068       84.15609
O         58.95257       71.52431       83.07210
H         59.20161       69.11917       86.80464
H         61.44714       70.21014       85.07445
H         60.10764       72.31916       85.07807
H         58.87209       71.56442       86.13121
N         62.05724       70.11911       87.97235
C         62.80341       70.63819       89.12265
C         64.19126       70.01945       89.19571
O         64.29842       68.84372       88.87419
C         61.99352       70.38354       90.40746
C         60.75782       71.30459       90.42252
C         60.07395       71.33879       91.78893
C         58.93185       72.36623       91.78521
N         58.33402       72.49057       93.11268
H         61.96180       69.09674       87.87730
H         62.93523       71.72779       89.05362
H         62.61886       70.64110       91.28114
H         61.71014       69.31393       90.51549
H         60.03946       71.00050       89.63022
H         61.09194       72.34524       90.20955
H         60.82289       71.64878       92.55121
H         59.68771       70.33076       92.05134
H         58.15510       72.05982       91.04990
H         59.32691       73.36197       91.47892
H         59.05368       72.82026       93.79705
H         57.56154       73.19422       93.07432
H         57.94609       71.57041       93.42146
N         65.31939       70.66949       89.64533
C         65.46711       72.03778       90.17125
C         64.61446       72.26581       91.40377
O         63.60750       72.95422       91.31616
C         65.36318       73.16392       89.11767
C         66.34288       72.90678       88.01581
O         67.61243       72.56924       88.31710
O         65.96282       72.86533       86.85916
H         66.18478       70.10584       89.65867
H         66.51901       72.14960       90.51207
H         65.63822       74.11947       89.61467
H         64.34776       73.28390       88.69840
N         64.94195       71.72241       92.61222
C         66.21973       71.06237       92.85057
C         66.35125       70.47603       94.24003
O         65.35714       70.35501       94.94152
H         64.28569       71.86029       93.39582
H         67.01282       71.82379       92.70839
H         66.37481       70.23028       92.13074
N         67.54860       70.02485       94.71475
C         68.83162       70.21654       94.03438
C         69.34878       71.64429       94.22614
O         68.70926       72.43116       94.91274
C         69.86386       69.17645       94.54193
C         70.23101       69.27040       96.00434
O         69.70801       70.21824       96.80683
O         71.02422       68.46867       96.47051
H         67.54290       69.54995       95.63067
H         68.70708       70.00782       92.94958
H         70.79975       69.26530       93.95105
H         69.45079       68.16273       94.34978
N         70.54239       72.02852       93.68453
C         71.16135       73.31710       93.95583
C         70.46523       74.51042       93.34436
O         70.91534       75.61356       93.62387
H         71.08501       71.35224       93.12939
H         72.20162       73.31551       93.56584
H         71.21716       73.45495       95.05887
N         69.38624       74.40096       92.51404
C         68.68847       75.56938       91.98742
C         67.28797       75.62503       92.56995
O         66.82356       74.66205       93.16665
C         68.69213       75.56717       90.43389
C         70.11552       75.65737       89.87837
O         67.97088       76.66531       89.94044
H         69.02053       73.47067       92.26423
H         69.18994       76.50227       92.32779
H         68.21564       74.61898       90.09008
H         67.62711       76.41202       89.04303
H         70.72738       74.79145       90.20310
H         70.07951       75.67571       88.76854
H         70.60091       76.59758       90.21855
N         66.59305       76.78930       92.49134
C         65.26514       77.00841       93.04415
C         64.28049       77.40458       91.95262
O         63.14354       77.71687       92.27356
C         65.29797       78.06382       94.19909
C         65.55899       79.55638       93.82364
C         66.22854       77.60234       95.33394
C         66.95584       79.95994       93.33618
H         67.05007       77.57059       92.01642
H         64.87915       76.06797       93.49807
H         64.26985       78.06348       94.62736
H         65.37967       80.14721       94.74904
H         64.81047       79.89513       93.07629
H         65.92982       76.59234       95.68741
H         67.28481       77.55473       94.99747
H         66.15955       78.29928       96.19656
H         67.74292       79.64280       94.05019
H         67.18307       79.59042       92.32516
H         66.99721       81.06652       93.25533
N         64.64704       77.40275       90.63643
C         63.79802       77.86106       89.55294
C         63.50911       76.69870       88.63223
O         64.44420       76.07697       88.14741
C         64.51796       78.97823       88.76530
C         64.95488       80.13429       89.66902
O         63.65090       79.46520       87.77205
H         65.57805       77.07294       90.36285
H         62.84460       78.27748       89.94613
H         65.43831       78.54574       88.30138
H         64.20812       79.70700       86.98736
H         65.46062       80.91333       89.06066
H         64.08171       80.58325       90.18612
H         65.68135       79.77610       90.42791
N         62.22393       76.35932       88.33323
C         61.88441       75.24695       87.44739
C         62.49837       75.40686       86.05436
O         63.10210       76.43410       85.77278
C         60.34218       75.05123       87.38131
C         59.59526       76.24913       86.77911
O         59.85930       74.80034       88.67780
H         61.46832       76.90526       88.77073
H         62.32433       74.33219       87.89405
H         60.12848       74.17330       86.73406
H         59.06942       74.20453       88.59021
H         58.50818       76.02404       86.74114
H         59.73109       77.16609       87.38736
H         59.94495       76.44744       85.74478
N         62.38228       74.40658       85.13106
C         62.95153       74.46269       83.79118
C         63.86704       73.25389       83.49335
O         64.44209       73.21285       82.41560
C         61.78158       74.50565       82.78649
C         62.14945       75.22567       81.47670
C         61.03362       75.11902       80.42764
C         61.03039       73.73126       79.76461
N         59.96758       73.62190       78.76856
H         61.83301       73.58027       85.37167
H         63.54237       75.39963       83.69282
H         60.94266       75.09956       83.21672
H         61.40285       73.47174       82.64157
H         63.09682       74.85720       81.03385
H         62.29524       76.29890       81.73603
H         61.22543       75.86942       79.63030
H         60.04859       75.35402       80.88998
H         60.89998       72.92741       80.51843
H         62.01413       73.57958       79.26454
H         59.03545       73.68199       79.23847
H         60.05678       74.38055       78.05429
H         60.04776       72.69551       78.29000
N         64.03183       72.22276       84.38443
C         64.86263       71.03891       84.13702
C         64.36117       70.23039       82.95572
O         63.21375       69.80511       82.96222
C         64.86438       70.12140       85.39097
C         65.69667       68.82308       85.29879
C         67.15293       69.06240       85.00052
O         67.50831       69.44427       83.89930
O         68.07009       68.93559       85.97248
H         63.55798       72.27063       85.29498
H         65.90504       71.37823       83.95828
H         63.81979       69.82961       85.63187
H         65.24556       70.69258       86.25522
H         65.27743       68.12027       84.54764
H         65.61469       68.33215       86.29358
N         65.20562       69.91309       81.93564
C         64.81733       69.03061       80.85805
H         63.97348       69.46756       80.28697
H         65.67805       68.86963       80.17373
H         64.51825       68.04275       81.27280
H         66.17301       70.26770       81.94248
Ca        68.37440       70.87078       87.06866
O         68.92601       73.11583       84.87638
H         69.36199       73.56592       85.64216
H         68.03234       72.86138       85.21544
O         71.07924       72.91117       88.05491
H         70.61325       73.68902       87.66117
H         71.96233       72.90642       87.60799
O         70.46315       67.76895       87.13240
H         71.42502       67.66956       87.34187
H         70.42623       67.76203       86.14301
O         71.17073       70.95593       85.27941
H         71.14873       71.53353       84.47565
H         71.86411       70.27861       85.07814
O         72.22971       70.16035       88.15109
H         73.08747       70.65462       88.14210
H         72.26290       69.61806       88.97850

Ca 1.0



