%chk=apoCaM-CA-Ng.loop1.water5.frame607.chk
%nprocshared=20
%mem=10GB
%nosave
#b3lyp/svp scf=(tight,noincore,xqc) Test 
#IOP(5/87=12) Density=Current Pop=(MK,readradii) iop(6/33=2) iop(6/42=6)

apoCaM-CA-Ng.loop1.water5.frame607 

   0  1 
C         50.77037        9.04794      -17.17860
C         49.58404        9.56530      -17.93283
O         49.10553        8.88402      -18.82880
H         51.61663        9.75940      -17.28312
H         50.51007        8.94108      -16.10554
H         51.08625        8.05906      -17.57466
N         49.07279       10.79258      -17.63468
C         47.94812       11.38270      -18.35431
C         48.41580       12.56773      -19.17168
O         49.56747       12.96839      -19.06121
C         46.80562       11.79130      -17.39139
C         47.18973       12.91765      -16.46329
O         46.58840       14.11677      -16.58092
O         48.05689       12.76447      -15.61884
H         49.54123       11.34409      -16.90131
H         47.53463       10.64367      -19.07446
H         46.46296       10.91466      -16.80105
H         45.94247       12.13388      -18.00242
N         47.55965       13.16530      -20.04428
C         47.94690       14.28562      -20.88479
C         46.76028       15.21124      -21.06489
O         45.77904       14.82756      -21.68577
C         48.61440       13.77523      -22.18155
C         47.77043       12.77888      -23.00086
C         48.63492       12.12521      -24.09362
C         47.87973       11.10985      -24.96919
N         47.33757        9.98829      -24.19769
H         46.61187       12.77235      -20.15539
H         48.73360       14.86996      -20.36012
H         49.53689       13.24191      -21.86096
H         48.92563       14.63092      -22.81885
H         46.89544       13.29240      -23.45192
H         47.41029       11.97592      -22.32649
H         49.49311       11.60368      -23.61340
H         49.04152       12.91539      -24.75896
H         48.60057       10.71119      -25.71827
H         47.05840       11.61767      -25.51977
H         46.56436       10.31044      -23.57352
H         46.94236        9.28167      -24.85951
H         48.09090        9.53366      -23.63211
N         46.76421       16.43394      -20.45703
C         45.64045       17.36201      -20.48232
C         46.15694       18.79945      -20.63602
O         46.83550       19.27455      -19.73755
C         44.73847       17.15175      -19.24453
C         45.39486       17.24281      -17.89014
O         44.64954       17.03475      -16.78884
O         46.58598       17.46837      -17.76670
H         47.58261       16.69229      -19.88896
H         44.97039       17.10415      -21.32322
H         44.30663       16.12876      -19.31521
H         43.89935       17.87847      -19.28897
N         45.92535       19.56895      -21.74463
C         45.17442       19.13220      -22.90959
C         45.80486       17.92383      -23.56046
O         46.86640       17.49052      -23.13919
H         46.31470       20.52489      -21.76588
H         45.11630       19.95445      -23.65553
H         44.13945       18.88383      -22.59100
N         45.17786       17.30118      -24.58996
C         45.65096       16.03493      -25.13790
C         46.33605       16.20685      -26.47623
O         46.78135       15.20818      -27.01998
C         44.50180       15.00699      -25.14781
C         43.33569       15.42409      -26.00165
O         42.12430       15.60526      -25.44123
O         43.47481       15.58966      -27.20271
H         44.32008       17.72489      -24.97646
H         46.44049       15.60403      -24.48284
H         44.14901       14.87357      -24.10095
H         44.87904       14.02378      -25.50239
N         46.50578       17.43552      -27.04371
C         47.31536       17.68213      -28.22329
C         48.79501       17.67413      -27.87971
O         49.39433       18.74102      -27.90526
H         46.07323       18.26389      -26.60999
H         47.07706       18.71308      -28.56995
H         47.05515       16.99440      -29.05576
N         49.46109       16.52408      -27.56573
C         50.87630       16.48783      -27.20120
C         51.08056       15.83857      -25.84230
O         50.14279       15.27742      -25.28978
C         51.69004       15.73804      -28.28983
C         51.26688       14.27103      -28.46599
O         51.54591       16.39200      -29.52351
H         48.96074       15.63058      -27.60787
H         51.27582       17.52289      -27.12812
H         52.76732       15.72443      -28.00342
H         52.14862       17.18051      -29.50359
H         51.90635       13.78702      -29.23380
H         51.38176       13.70718      -27.51733
H         50.21390       14.19070      -28.80673
N         52.30582       15.88329      -25.24226
C         52.61777       15.19230      -23.99454
C         52.41397       16.10218      -22.78377
O         52.40176       15.59005      -21.67570
C         54.04148       14.55382      -24.09942
C         54.17778       13.63278      -25.34648
C         54.47659       13.80055      -22.82971
C         53.25574       12.40882      -25.35303
H         53.05488       16.43169      -25.69522
H         51.87511       14.37873      -23.84308
H         54.77120       15.38299      -24.24050
H         55.22879       13.27664      -25.41787
H         53.97717       14.21971      -26.26769
H         55.49031       13.36856      -22.97474
H         54.55158       14.48882      -21.96479
H         53.76810       12.98527      -22.57870
H         53.46435       11.74610      -24.48918
H         52.18843       12.70795      -25.33940
H         53.43226       11.82522      -26.28097
N         52.16264       17.43952      -22.91807
C         51.75831       18.29031      -21.79676
C         52.77204       19.39278      -21.53472
O         53.77418       19.47294      -22.22733
C         50.32416       18.83036      -22.05365
C         50.18601       19.70268      -23.31351
O         49.41322       17.76138      -22.09769
H         52.20728       17.87019      -23.84973
H         51.71168       17.70228      -20.85496
H         50.02296       19.46323      -21.19417
H         49.60436       17.22647      -22.91202
H         50.40176       19.12594      -24.23686
H         49.14375       20.07827      -23.39080
H         50.87193       20.57399      -23.26211
N         52.56789       20.26541      -20.49973
C         53.51804       21.29896      -20.11013
C         53.91150       21.09010      -18.65197
O         55.08125       20.83310      -18.39584
C         52.92873       22.70778      -20.40033
C         53.88677       23.83218      -19.99684
O         51.70096       22.90591      -19.74679
H         51.70580       20.18430      -19.94439
H         54.44282       21.21895      -20.72405
H         52.78214       22.79729      -21.50416
H         50.98166       22.64593      -20.38026
H         53.44547       24.81555      -20.26673
H         54.06617       23.82243      -18.90049
H         54.85751       23.72399      -20.52472
N         52.99876       21.21186      -17.64437
C         53.32251       21.08017      -16.22796
C         52.36967       20.09968      -15.56815
O         51.17280       20.18248      -15.81573
C         53.23276       22.46667      -15.56463
C         53.78255       22.43960      -14.12784
C         53.83555       23.84483      -13.51969
C         54.49291       23.81242      -12.13257
N         54.57856       25.15554      -11.56099
H         52.02830       21.46459      -17.88005
H         54.37325       20.73774      -16.09492
H         52.18891       22.85087      -15.58581
H         53.87114       23.16206      -16.15418
H         54.81893       22.03506      -14.15664
H         53.16051       21.77691      -13.48755
H         52.80620       24.25776      -13.44294
H         54.43861       24.50562      -14.18082
H         55.52027       23.39210      -12.22160
H         53.90457       23.15704      -11.45273
H         55.14632       25.77571      -12.18355
H         53.62051       25.55675      -11.44065
H         55.04455       25.10029      -10.62653
N         52.81520       19.18165      -14.66453
C         51.91869       18.22547      -14.02424
C         51.40859       17.20709      -15.04014
O         50.19845       17.12473      -15.18692
C         52.56185       17.54784      -12.78969
C         52.89069       18.50298      -11.62250
C         51.67659       19.10025      -10.95470
O         51.40601       18.79920       -9.66978
O         50.95285       19.88296      -11.54813
H         53.81307       19.18948      -14.40087
H         51.03106       18.76644      -13.63844
H         53.50661       17.05752      -13.07336
H         51.87339       16.76486      -12.40033
H         53.57382       19.31308      -11.95391
H         53.42647       17.90200      -10.85545
N         52.20568       16.40402      -15.80794
C         53.65301       16.39257      -15.80012
H         54.05564       17.39351      -16.05365
H         54.04473       16.03920      -14.83125
H         54.02119       15.67729      -16.56564
H         51.74493       15.76428      -16.47326
Ca        47.34873       15.85836      -15.35760
O         49.47154       16.29080      -18.00112
H         50.11357       15.66206      -18.41588
H         49.56971       17.12530      -18.52488
O         48.74367       15.11731      -12.74122
H         49.23756       15.62663      -12.05076
H         49.43572       14.56962      -13.19028
O         45.28591       15.17415      -13.30894
H         45.81439       14.34844      -13.44940
H         44.40909       14.98184      -13.72628
O         48.10081       19.09517      -15.99986
H         47.97488       19.80223      -16.68129
H         48.54945       19.55042      -15.24440
O         46.53369       18.11674      -13.31304
H         46.07830       18.79245      -13.87570
H         47.27747       18.60974      -12.88394

Ca 1.0



