%chk=apoCaM-CA-Ng.loop1.water1.frame855.chk
%nprocshared=20
%mem=10GB
%nosave
#b3lyp/svp scf=(tight,noincore,xqc) Test 
#IOP(5/87=12) Density=Current Pop=(MK,readradii) iop(6/33=2) iop(6/42=6)

apoCaM-CA-Ng.loop1.water1.frame855 

   0  1 
C         46.46842       55.28463       18.33008
C         45.55825       56.47437       18.28494
O         44.40338       56.31552       17.91454
H         47.48383       55.56321       18.68154
H         46.04775       54.52124       19.01621
H         46.55563       54.85252       17.31061
N         46.01216       57.71138       18.63780
C         45.17264       58.90824       18.57447
C         44.66244       59.14587       17.14868
O         45.13785       58.48871       16.23062
C         45.93206       60.12406       19.14647
C         47.17891       60.45284       18.37202
O         47.50090       59.74483       17.27291
O         47.83356       61.43950       18.66821
H         46.98666       57.79684       18.96588
H         44.28663       58.72482       19.22131
H         46.21237       59.91867       20.20229
H         45.26222       61.01122       19.13261
N         43.60030       59.97121       16.90637
C         42.87618       59.87374       15.63956
C         43.52900       60.54451       14.43831
O         43.11168       60.19988       13.33929
C         41.38231       60.24976       15.78069
C         41.09174       61.74196       16.00931
C         39.56813       61.96259       16.09422
C         39.15261       63.43873       16.20265
N         39.61590       64.06489       17.44080
H         43.16587       60.45810       17.70477
H         42.83792       58.78497       15.39939
H         40.94802       59.65826       16.61766
H         40.86079       59.93828       14.84770
H         41.49508       62.32737       15.15501
H         41.58193       62.08128       16.94458
H         39.15179       61.39725       16.95717
H         39.10221       61.56336       15.16614
H         38.04034       63.48348       16.17695
H         39.53559       64.00461       15.32496
H         39.25748       63.53500       18.26821
H         40.65887       64.10851       17.46493
H         39.24528       65.04196       17.48207
N         44.48974       61.52309       14.51817
C         44.98177       62.16395       13.29138
C         45.91989       61.25164       12.49560
O         46.51179       60.36672       13.09297
C         45.44809       63.63614       13.46366
C         46.64512       64.05444       14.28192
O         46.91467       65.24484       14.29500
O         47.40696       63.24736       15.03787
H         44.78644       61.87565       15.43971
H         44.07140       62.29319       12.66619
H         44.58116       64.19993       13.87320
H         45.65340       64.04859       12.45852
N         46.03348       61.28897       11.12993
C         45.30727       62.19231       10.25005
C         44.15204       61.48620        9.59064
O         44.00210       60.28101        9.74320
H         46.61365       60.56640       10.67435
H         45.99498       62.65081        9.50811
H         44.85068       63.02110       10.80554
N         43.21922       62.22662        8.92961
C         41.95992       61.67732        8.44074
C         41.76218       62.04705        6.97827
O         42.31513       63.04493        6.53319
C         40.84441       62.26451        9.33956
C         39.47422       61.64904        9.22592
O         38.47889       62.13354        9.99184
O         39.25404       60.69326        8.50337
H         43.35928       63.24826        8.87166
H         41.96120       60.57053        8.54920
H         40.77303       63.35843        9.15339
H         41.14586       62.11992       10.40084
N         40.97734       61.28682        6.16210
C         40.72263       61.62262        4.77126
C         41.93643       61.49577        3.87354
O         41.79946       61.79295        2.69553
H         40.51611       60.44793        6.53618
H         40.31784       62.65683        4.71827
H         39.94859       60.93338        4.36916
N         43.14013       61.04241        4.33243
C         44.31828       60.89296        3.48639
C         45.45287       61.77445        3.98700
O         45.34272       62.36705        5.05183
C         44.74280       59.39554        3.42391
C         45.04228       58.76596        4.79949
O         43.76876       58.63554        2.75214
H         43.23965       60.77631        5.31966
H         44.09718       61.22736        2.44938
H         45.67381       59.32473        2.82266
H         42.94284       58.63923        3.30284
H         45.40187       57.72402        4.66491
H         45.82030       59.33984        5.34215
H         44.13137       58.72249        5.43257
N         46.58583       61.90280        3.23807
C         47.76886       62.64386        3.66640
C         48.07211       63.79996        2.72643
O         48.29810       64.90107        3.21027
C         49.00402       61.69024        3.72200
C         48.71968       60.48371        4.65206
C         50.26050       62.46353        4.18745
C         49.85588       59.46004        4.70240
H         46.62570       61.41412        2.33139
H         47.62798       63.05804        4.69063
H         49.19708       61.29854        2.69779
H         47.82972       59.94368        4.27081
H         48.50147       60.83778        5.68318
H         50.48728       63.31087        3.50788
H         50.11406       62.86210        5.21418
H         51.16295       61.82274        4.17097
H         49.54724       58.59995        5.33252
H         50.08520       59.08897        3.68090
H         50.77179       59.88890        5.15563
N         48.17325       63.60574        1.38087
C         48.76784       64.58274        0.46921
C         49.82364       63.87571       -0.37690
O         49.88038       62.65190       -0.36172
C         47.68311       65.23211       -0.43103
C         46.62294       65.97916        0.39046
O         48.25360       66.11675       -1.36428
H         47.88297       62.69730        0.99005
H         49.27237       65.38547        1.05195
H         47.16898       64.42851       -1.00182
H         48.68177       66.85716       -0.85841
H         47.09417       66.79601        0.97931
H         45.86843       66.42664       -0.29097
H         46.10149       65.28966        1.08555
N         50.70187       64.58152       -1.14372
C         51.64470       63.93954       -2.05090
C         53.06478       64.11612       -1.54850
O         53.72177       63.10853       -1.32448
C         51.41461       64.46040       -3.48998
C         52.24924       63.69508       -4.52225
O         51.69495       65.83432       -3.56953
H         50.69964       65.61066       -1.09154
H         51.45211       62.84313       -2.08936
H         50.33832       64.28220       -3.72785
H         51.15281       66.19967       -4.31663
H         52.02506       64.07510       -5.54145
H         53.33308       63.81246       -4.33132
H         51.99904       62.61345       -4.49017
N         53.60616       65.35101       -1.33445
C         54.97785       65.54072       -0.86896
C         55.00135       66.25568        0.46794
O         53.98129       66.77025        0.90618
C         55.76746       66.35248       -1.91871
C         55.84472       65.60572       -3.26202
C         56.55550       66.38824       -4.37718
C         55.76947       67.63285       -4.82722
N         56.41893       68.27720       -5.96841
H         53.03508       66.19067       -1.51024
H         55.47783       64.55898       -0.71778
H         56.80306       66.54204       -1.56091
H         55.25800       67.33039       -2.04848
H         54.82665       65.35852       -3.62040
H         56.39550       64.65453       -3.09414
H         56.64188       65.70751       -5.25233
H         57.58098       66.67041       -4.05426
H         55.69182       68.36519       -3.99636
H         54.74045       67.32931       -5.12499
H         55.85693       69.11081       -6.25636
H         57.38170       68.58967       -5.70625
H         56.46988       67.61320       -6.77529
N         56.16299       66.30479        1.18144
C         56.30161       67.01782        2.44742
C         55.28083       66.54530        3.48572
O         54.51105       67.38787        3.92561
C         57.75125       66.95705        2.98926
C         58.76763       67.61949        2.04324
C         60.15065       67.56448        2.62795
O         61.04500       66.97916        2.03795
O         60.41301       68.16688        3.80368
H         56.98224       65.81316        0.79482
H         56.09410       68.09567        2.25517
H         58.07377       65.91543        3.15600
H         57.78105       67.49469        3.96304
H         58.49234       68.68227        1.87586
H         58.77422       67.10232        1.06070
N         55.14396       65.26087        3.93185
C         55.93542       64.12856        3.50449
H         56.98653       64.23666        3.82214
H         55.55422       63.20755        3.99565
H         55.85944       63.98934        2.40757
H         54.39528       65.06844        4.61640
Ca        47.49645       61.08641       15.51986
O         47.58114       57.59328       14.30467
H         46.63109       57.62843       14.02790
H         47.77787       56.62673       14.39080

Ca 1.0



