%chk=apoCaM-CA-Ng.loop2.water4.frame280.chk
%nprocshared=20
%mem=10GB
%nosave
#b3lyp/svp scf=(tight,noincore,xqc) Test 
#IOP(5/87=12) Density=Current Pop=(MK,readradii) iop(6/33=2) iop(6/42=6)

apoCaM-CA-Ng.loop2.water4.frame280 

   -2  1 
C         47.61491       50.69494       37.75906
C         48.60909       51.34180       38.67824
O         49.35359       50.63784       39.34163
H         46.58757       50.99991       38.05165
H         47.80628       51.01261       36.71316
H         47.68372       49.58732       37.81751
N         48.67857       52.69892       38.75888
C         49.57578       53.40905       39.66698
C         49.17581       53.14395       41.10767
O         48.02734       53.38725       41.45504
C         49.51635       54.92336       39.38048
C         50.42684       55.70320       40.29031
O         49.96886       56.56530       41.02317
O         51.74997       55.45206       40.30414
H         48.05848       53.24801       38.14257
H         50.62245       53.07798       39.48204
H         48.47118       55.28758       39.49651
H         49.83184       55.10491       38.33025
N         50.08229       52.67143       42.01333
C         49.71997       52.40973       43.40492
C         48.68682       51.29611       43.50439
O         47.98752       51.21692       44.50422
C         50.96145       52.05825       44.23178
H         51.05490       52.51336       41.70663
H         49.28506       53.34515       43.82250
H         51.69599       52.89106       44.17608
H         50.69217       51.90284       45.29791
H         51.44283       51.13581       43.84104
N         48.56471       50.38392       42.49856
C         47.58094       49.31811       42.42203
C         47.65720       48.41792       43.63875
O         46.66407       48.22966       44.32880
C         46.17420       49.89357       42.14449
C         45.22321       48.81154       41.70663
O         44.09485       48.56943       42.39896
O         45.46775       48.15674       40.70515
H         49.23053       50.42739       41.71956
H         47.84847       48.70518       41.53098
H         46.23900       50.62199       41.30667
H         45.78456       50.42815       43.03761
N         48.83515       47.80854       43.94040
C         48.99967       46.88250       45.04656
C         49.29442       45.48022       44.55918
O         49.47077       44.60871       45.39813
H         49.65369       47.98598       43.33728
H         48.08157       46.82733       45.67005
H         49.82784       47.24289       45.69307
N         49.33582       45.17416       43.22814
C         49.55073       43.83259       42.71055
C         50.80620       43.83535       41.87018
O         50.91179       44.66137       40.97187
C         48.30932       43.41767       41.89625
C         48.32145       41.97389       41.44742
N         47.23586       41.45861       40.83008
O         49.28891       41.25697       41.65657
H         49.18237       45.91169       42.52485
H         49.65853       43.10169       43.54097
H         48.18190       44.08475       41.01370
H         47.42154       43.54522       42.55253
H         46.40242       42.04182       40.66664
H         47.22198       40.47341       40.52789
N         51.80438       42.93390       42.09814
C         53.04204       42.95882       41.34039
C         53.01674       41.99516       40.18324
O         52.17703       41.10579       40.13537
H         51.67392       42.19425       42.80538
H         53.91188       42.76889       42.00719
H         53.20044       43.97410       40.92154
N         53.92777       42.14701       39.18168
C         53.99326       41.26500       38.02033
C         52.73700       41.32503       37.15616
O         52.48145       40.36359       36.44651
C         55.26107       41.52346       37.16210
C         55.31376       42.91757       36.50928
O         56.42331       41.28999       37.92031
H         54.60521       42.91777       39.27307
H         54.07915       40.22710       38.41289
H         55.26378       40.78183       36.33419
H         56.51898       42.02297       38.58209
H         56.23481       43.00338       35.89482
H         54.44368       43.07301       35.84359
H         55.32553       43.72865       37.26570
N         51.92781       42.42508       37.13967
C         50.67872       42.49494       36.37772
C         49.51515       42.74291       37.32309
O         49.73035       43.02321       38.49345
C         50.75485       43.56180       35.23247
C         51.26617       44.94102       35.73645
C         51.62526       43.02112       34.08307
C         51.22728       46.05048       34.67931
H         52.19318       43.24369       37.70583
H         50.45556       41.51071       35.91116
H         49.73329       43.69319       34.81131
H         52.31642       44.85015       36.08883
H         50.63600       45.27341       36.58837
H         51.21315       42.05526       33.72020
H         51.62433       43.70710       33.21248
H         52.66908       42.85740       34.41169
H         50.18894       46.20946       34.32094
H         51.59581       46.99815       35.12745
H         51.88507       45.82281       33.81613
N         48.23454       42.61005       36.86835
C         47.05768       42.83278       37.69984
C         46.19767       41.56289       37.80552
O         45.07289       41.64718       38.28048
C         46.29062       44.02701       37.09697
C         45.30653       44.68329       38.03163
O         45.12477       44.27582       39.16852
O         44.67816       45.79776       37.61948
H         48.08009       42.34936       35.88229
H         47.36460       43.13797       38.72116
H         45.79705       43.72804       36.14645
H         47.03149       44.82336       36.86551
N         46.68012       40.33651       37.43752
C         45.89202       39.10569       37.50822
C         44.81616       39.13072       36.43204
O         45.18523       39.32760       35.28162
C         46.78827       37.87443       37.22357
C         46.00380       36.58899       37.37252
C         45.68879       36.09492       38.65048
C         45.55986       35.88735       36.23772
C         44.94707       34.91688       38.78883
C         44.80441       34.71918       36.38108
C         44.50105       34.23250       37.65516
H         47.65739       40.26047       37.11871
H         45.48328       38.98816       38.53520
H         47.66669       37.84004       37.90419
H         47.18915       37.96236       36.18894
H         46.02313       36.61819       39.53754
H         45.77786       36.25604       35.24336
H         44.71371       34.53648       39.77502
H         44.45111       34.19240       35.50394
H         43.91899       33.32616       37.76378
N         43.49469       38.86640       36.66778
C         42.52594       38.75746       35.59013
C         42.11247       40.10825       35.02576
O         41.44662       40.11719       33.99978
C         41.37191       37.98216       36.22981
C         41.41424       38.48423       37.66068
C         42.91714       38.50868       37.94643
H         42.93755       38.14491       34.75588
H         40.39484       38.05886       35.70638
H         41.66099       36.90581       36.26785
H         41.04018       39.53244       37.65215
H         40.81756       37.89732       38.39149
H         43.13249       39.24300       38.75091
H         43.29080       37.50082       38.22781
N         42.45614       41.28638       35.62442
C         42.12418       42.58468       35.04169
C         43.09208       42.96212       33.92960
O         42.82716       43.93710       33.23907
C         42.14389       43.67913       36.12565
C         41.01141       43.46935       37.14006
C         41.08995       44.45957       38.26095
O         41.02541       45.65682       38.03464
O         41.21126       44.02484       39.52904
H         42.94918       41.26619       36.52879
H         41.09588       42.54333       34.61557
H         42.00918       44.68250       35.66331
H         43.13170       43.65920       36.63332
H         41.06367       42.44649       37.56874
H         40.03315       43.58529       36.62401
N         44.24726       42.27283       33.71064
C         45.17822       42.64054       32.66737
H         46.06353       41.96977       32.69806
H         44.69065       42.54404       31.67463
H         45.52235       43.68627       32.81592
H         44.50001       41.47954       34.31078
Ca        43.39765       47.01990       39.01388
O         43.11562       47.88541       36.04438
H         43.03562       48.49301       35.26757
H         43.60303       47.09990       35.69081
O         40.84376       48.24561       39.99974
H         40.09968       47.62610       40.20619
H         40.46703       49.14909       40.14719
O         43.01625       45.52801       41.48728
H         43.18422       44.59983       41.18696
H         42.59203       45.43035       42.37568
O         43.11408       50.08529       38.76116
H         43.31372       50.58362       37.92931
H         43.44387       50.67007       39.48887

Ca 1.0



