%chk=apoCaM-CA-Ng.loop2.water4.frame1058.chk
%nprocshared=20
%mem=10GB
%nosave
#b3lyp/svp scf=(tight,noincore,xqc) Test 
#IOP(5/87=12) Density=Current Pop=(MK,readradii) iop(6/33=2) iop(6/42=6)

apoCaM-CA-Ng.loop2.water4.frame1058 

   -2  1 
C         -2.90001       71.78821       57.26944
C         -2.31260       73.16289       57.07215
O         -1.85801       73.42511       55.96842
H         -3.75119       71.64686       56.57166
H         -2.12114       71.03030       57.04135
H         -3.25270       71.58663       58.29632
N         -2.23321       74.10826       58.05528
C         -2.75706       73.96344       59.41394
C         -2.04492       74.95435       60.35379
O         -0.86290       75.18692       60.14068
C         -4.31753       74.02639       59.39086
C         -4.77631       75.30202       58.74637
O         -5.39088       75.28456       57.69148
O         -4.36776       76.46576       59.26315
H         -1.75562       74.99170       57.81288
H         -2.43038       72.97994       59.81200
H         -4.74930       73.91913       60.40496
H         -4.72237       73.18399       58.79548
N         -2.63772       75.46734       61.47739
C         -1.94127       76.24798       62.50615
C         -1.45645       77.62983       62.07189
O         -0.86738       78.30460       62.90563
C         -0.78983       75.42907       63.11625
H         -3.61828       75.23588       61.68034
H         -2.66322       76.42967       63.33400
H         -0.34597       75.97132       63.97830
H         -1.17407       74.45514       63.48656
H          0.02238       75.24023       62.38650
N         -1.70137       78.15129       60.83517
C         -1.29350       79.50316       60.44132
C         -2.52114       80.36985       60.22035
O         -3.63403       79.87536       60.34652
C         -0.39705       79.43589       59.17661
C         -1.11668       78.83747       57.99896
O         -0.75378       77.76453       57.54340
O         -2.21983       79.42733       57.50009
H         -2.23566       77.59819       60.15297
H         -0.69918       79.98806       61.24491
H          0.49319       78.81440       59.41866
H         -0.03290       80.44500       58.89314
N         -2.38702       81.67594       59.85114
C         -3.52233       82.51188       59.49109
C         -3.53383       82.82489       58.00700
O         -4.51805       83.38456       57.54523
H         -1.44151       82.07819       59.76728
H         -3.52166       83.44351       60.09554
H         -4.47545       81.98256       59.70256
N         -2.49745       82.48147       57.18531
C         -2.54473       82.63877       55.73594
C         -3.48161       81.60784       55.12504
O         -4.02100       80.77300       55.83828
C         -1.12986       82.43772       55.14158
C         -0.13888       83.49403       55.56827
N          1.13364       83.42031       55.12399
O         -0.47294       84.41907       56.29486
H         -1.64038       82.07887       57.58677
H         -2.89228       83.66340       55.47609
H         -1.16789       82.47432       54.03325
H         -0.74605       81.43549       55.43779
H          1.41742       82.64053       54.51471
H          1.82827       84.13556       55.38586
N         -3.69304       81.59688       53.78094
C         -4.47894       80.58504       53.10130
C         -5.65754       81.20227       52.39269
O         -6.15142       82.21719       52.86393
H         -3.25351       82.32243       53.19525
H         -4.85779       79.79827       53.78869
H         -3.80587       80.09323       52.38743
N         -6.24917       80.62787       51.30476
C         -5.77203       79.42389       50.62401
C         -4.48444       79.71406       49.85785
O         -4.48926       80.56714       48.98037
C         -6.86590       78.90715       49.65659
C         -6.41901       77.65719       48.88704
O         -8.01410       78.60018       50.40664
H         -7.11057       81.07664       50.95373
H         -5.60940       78.62202       51.37930
H         -7.10049       79.71549       48.92387
H         -8.77682       78.56789       49.77238
H         -6.15952       76.83871       49.59086
H         -7.23968       77.31523       48.22191
H         -5.53882       77.88116       48.24830
N         -3.34127       79.02581       50.14109
C         -2.08017       79.24214       49.43552
C         -2.17137       78.60734       48.04335
O         -2.47968       77.42320       47.99876
C         -0.87932       78.61130       50.21646
C         -0.76909       79.23718       51.63647
C          0.43646       78.82339       49.43089
C          0.35062       78.64791       52.49552
H         -3.37058       78.32866       50.90009
H         -1.87265       80.32489       49.43625
H         -1.04890       77.51601       50.31934
H         -1.70932       79.05993       52.19358
H         -0.61880       80.33640       51.55828
H          0.65167       79.90715       49.31092
H          1.29469       78.33673       49.93328
H          0.38110       78.35908       48.42564
H          0.31304       79.10487       53.50693
H          0.22145       77.54949       52.59496
H          1.35028       78.87004       52.07141
N         -1.86242       79.23110       46.86297
C         -1.42550       80.61603       46.69345
C          0.04066       80.68150       46.28350
O          0.65566       79.65749       46.03088
C         -2.34432       81.36956       45.70118
C         -2.34382       80.81683       44.29547
O         -2.82700       79.58658       44.03679
O         -1.94954       81.50755       43.36968
H         -1.89002       78.64334       46.01791
H         -1.48485       81.16413       47.64177
H         -2.01968       82.43194       45.66041
H         -3.38733       81.35904       46.08358
N          0.67393       81.89204       46.27461
C          2.09488       82.07556       45.97945
C          2.45697       83.54542       46.20988
O          1.81647       84.38243       45.59076
C          2.42244       81.70888       44.50857
C          3.90945       81.81918       44.23983
C          4.41366       82.81303       43.38253
C          4.80846       80.93075       44.85810
C          5.79154       82.92385       43.16311
C          6.18393       81.04314       44.63323
C          6.67555       82.04100       43.78898
H          0.12007       82.71635       46.54852
H          2.67508       81.41154       46.64727
H          1.85138       82.39075       43.84042
H          2.10914       80.67350       44.26186
H          3.74476       83.51100       42.89564
H          4.44472       80.15376       45.51878
H          6.17561       83.69721       42.51041
H          6.86920       80.35855       45.11675
H          7.74130       82.12974       43.61991
N          3.47477       83.96478       47.03177
C          4.42986       83.12037       47.73149
C          3.87455       82.65715       49.08358
O          2.81259       82.04996       49.07910
C          5.66664       84.03169       47.78758
C          5.02616       85.37649       48.07644
C          3.85003       85.36486       47.11149
H          4.70745       82.22611       47.14386
H          6.48937       83.71477       48.45857
H          6.10176       84.09496       46.76282
H          4.62199       85.33739       49.10401
H          5.68280       86.26669       47.98455
H          3.02685       86.01801       47.47515
H          4.17642       85.69265       46.09988
N          4.54006       82.85475       50.26949
C          4.06721       82.35169       51.55664
C          5.10101       81.41270       52.20716
O          5.52793       81.68928       53.31878
C          3.66905       83.53473       52.49268
C          4.76185       84.55148       52.90954
C          5.16343       85.49820       51.82128
O          6.32435       85.55352       51.44681
O          4.25140       86.34007       51.29892
H          5.43326       83.35735       50.28207
H          3.13996       81.75215       51.42359
H          3.30685       83.06926       53.42873
H          2.81392       84.09068       52.04917
H          5.65504       84.03983       53.31658
H          4.35115       85.18118       53.72772
N          5.56244       80.26074       51.63572
C          5.16062       79.70918       50.36156
H          4.37105       80.28627       49.86977
H          6.04532       79.65501       49.69263
H          4.76639       78.68379       50.51727
H          6.26354       79.71313       52.15947
Ca        -4.05924       78.23838       57.94573
O         -7.12042       78.03787       59.48832
H         -7.44620       78.79686       60.03434
H         -7.09076       77.27373       60.11743
O         -6.45430       80.81066       57.62391
H         -6.59312       81.60544       58.19719
H         -6.84969       81.06266       56.75164
O         -7.24795       78.16087       56.14374
H         -7.17836       78.68657       55.30736
H         -8.00623       78.57029       56.63176
O         -4.29974       77.33342       55.05185
H         -3.32805       77.36127       55.24064
H         -4.45906       76.42294       54.69753

Ca 1.0



