%chk=apoCaM-CA-Ng.loop4.water3.frame190.chk
%nprocshared=20
%mem=10GB
%nosave
#b3lyp/svp scf=(tight,noincore,xqc) Test 
#IOP(5/87=12) Density=Current Pop=(MK,readradii) iop(6/33=2) iop(6/42=6)

apoCaM-CA-Ng.loop4.water3.frame190 

   -3  1 
C         76.71617       48.06064       16.02636
C         75.38180       47.96858       15.35538
O         75.22461       47.13015       14.48754
H         77.15029       49.06696       15.85917
H         76.59725       47.87862       17.11461
H         77.41095       47.29592       15.61416
N         74.35839       48.78606       15.73239
C         73.01155       48.73649       15.16903
C         72.39057       47.36556       15.36485
O         72.04871       46.70284       14.40217
C         72.93086       49.36885       13.75334
C         73.80191       48.83481       12.64120
O         73.51097       47.68961       11.99207
O         74.66866       49.55925       12.17761
H         74.52895       49.45531       16.49853
H         72.36907       49.41830       15.77276
H         73.21886       50.43509       13.89763
H         71.87378       49.37643       13.40721
N         72.21673       46.92053       16.64718
C         71.58051       45.68972       17.12927
C         70.06888       45.68873       16.90226
O         69.33620       45.73283       17.88136
C         72.24680       44.37570       16.63236
C         71.72789       43.13968       17.43082
C         73.78147       44.43569       16.68520
C         72.07908       43.11036       18.92797
H         72.57075       47.54119       17.39292
H         71.72928       45.72299       18.22901
H         71.97837       44.22847       15.56379
H         72.15860       42.22835       16.97498
H         70.62419       43.06832       17.34771
H         74.14975       44.63807       17.71068
H         74.20929       43.47515       16.32422
H         74.15816       45.23535       16.01845
H         71.62319       43.95500       19.48145
H         71.68307       42.17615       19.37853
H         73.17637       43.11748       19.08622
N         69.52383       45.64968       15.65292
C         68.09101       45.70239       15.40786
C         67.38939       44.40067       15.77211
O         66.41769       44.48118       16.50991
C         67.76929       46.09470       13.94493
C         68.31613       47.45416       13.60368
O         69.10457       47.58721       12.68244
O         67.92236       48.53674       14.30141
H         70.13491       45.61949       14.83429
H         67.65384       46.52829       16.01628
H         66.66603       46.13337       13.81407
H         68.15887       45.35940       13.22197
N         67.73067       43.16845       15.28182
C         68.95189       42.85683       14.54611
C         68.92399       41.45058       13.96215
O         68.45143       40.55911       14.65266
H         67.10187       42.38698       15.52427
H         69.79665       42.91707       15.25637
H         69.15720       43.59172       13.77637
N         69.46688       41.10288       12.74906
C         70.22462       41.95275       11.82980
C         71.37313       42.60507       12.58752
O         71.41960       43.82392       12.67677
C         69.30184       42.93078       11.05888
C         69.99585       43.62176        9.91134
O         69.36750       44.39855        9.21085
O         71.29101       43.38079        9.62744
H         69.41684       40.10506       12.48950
H         70.65100       41.29583       11.03985
H         68.86766       43.70327       11.71285
H         68.46264       42.34785       10.62475
N         72.31287       41.86779       13.24286
C         72.46960       40.42703       13.15341
C         71.91000       39.74644       14.36649
O         72.08382       40.24618       15.46337
H         72.97588       42.36149       13.85470
H         73.55533       40.20821       13.08347
H         72.02152       40.00395       12.23310
N         71.21110       38.58520       14.23534
C         70.59144       37.88692       15.35768
C         71.57258       37.40831       16.43853
O         71.08769       36.97910       17.47567
C         69.61791       36.78492       14.85662
C         70.18919       35.69042       13.93136
C         71.21208       34.82536       14.59603
N         70.88222       34.10154       15.68741
O         72.34008       34.75532       14.13265
H         71.08154       38.21960       13.28295
H         69.93881       38.62669       15.87323
H         68.82548       37.29859       14.26925
H         69.11309       36.31820       15.72981
H         70.61355       36.13574       13.00898
H         69.35139       35.03463       13.60993
H         69.93016       34.13121       16.07686
H         71.57422       33.50116       16.14255
N         72.93369       37.53009       16.32419
C         73.85041       37.31913       17.45297
C         74.91849       36.25991       17.20755
O         75.69966       36.05352       18.12951
C         74.52745       38.66819       17.86443
C         73.50467       39.65956       18.43739
C         75.32321       39.31728       16.71873
H         73.33625       37.86295       15.43992
H         73.29218       36.96310       18.34659
H         75.24363       38.46734       18.69239
H         72.72673       39.91526       17.70235
H         73.00184       39.22191       19.32483
H         74.01054       40.59673       18.75466
H         76.10317       38.62379       16.34026
H         74.66388       39.60745       15.87745
H         75.82857       40.23727       17.08244
N         75.03407       35.53617       16.05276
C         76.08679       34.53117       15.87922
C         77.00469       34.80043       14.69144
O         77.97905       34.07162       14.57031
C         75.48912       33.11263       15.71618
C         74.60997       32.66483       16.85734
N         75.05049       32.66696       18.13589
O         73.48698       32.25685       16.61548
H         74.35530       35.68169       15.29383
H         76.74983       34.51438       16.76969
H         76.32300       32.38184       15.64266
H         74.90647       33.06109       14.76880
H         75.99706       32.99231       18.37273
H         74.43291       32.34420       18.89634
N         76.74194       35.74541       13.73567
C         77.51200       35.81440       12.49410
C         77.78117       37.23926       12.03773
O         76.84260       37.99877       11.84962
C         76.73292       35.07939       11.38349
C         76.66875       33.59050       11.63374
C         77.84918       32.82397       11.62118
C         75.44133       32.95125       11.86725
C         77.80194       31.44575       11.84089
C         75.39692       31.57057       12.09086
C         76.57403       30.81356       12.07706
O         76.51360       29.48318       12.28783
H         75.88190       36.30613       13.79582
H         78.48984       35.29913       12.60204
H         77.23584       35.21893       10.40264
H         75.71472       35.52109       11.30761
H         78.80820       33.29135       11.43447
H         74.52029       33.51980       11.88169
H         78.72005       30.87126       11.82457
H         74.44547       31.08795       12.27321
H         77.30444       28.92476       12.27865
N         79.06073       37.60045       11.70945
C         79.48054       38.81718       11.00706
C         79.45545       40.10096       11.81905
O         80.11830       41.03879       11.39390
C         78.71627       39.01104        9.67622
C         78.84503       37.80062        8.74049
C         77.98827       37.97395        7.51924
O         78.17209       38.91312        6.76158
O         77.00691       37.08896        7.25668
H         79.80377       36.89854       11.84973
H         80.55775       38.66590       10.76170
H         79.10500       39.90972        9.14812
H         77.64344       39.19566        9.89376
H         78.51596       36.88022        9.26379
H         79.90616       37.67079        8.43784
N         78.72734       40.26060       12.95899
C         78.74179       41.51649       13.70430
C         79.99653       41.64556       14.55890
O         80.17557       42.69456       15.16361
C         77.50066       41.61786       14.61162
C         76.15897       41.63049       13.85756
C         75.90372       42.90671       13.10121
O         76.56224       43.20998       12.11959
O         74.91195       43.71103       13.52941
H         78.12211       39.50036       13.28987
H         78.71781       42.36866       12.99213
H         77.54687       42.53864       15.23482
H         77.51272       40.74339       15.29671
H         75.36495       41.55463       14.62946
H         76.05589       40.75413       13.18327
N         80.89886       40.62971       14.68798
C         82.06866       40.75037       15.53039
H         82.71222       41.58113       15.17214
H         81.75982       40.94454       16.58004
H         82.65379       39.80652       15.50386
H         80.75808       39.73367       14.20082
Ca        74.13303       45.60887       12.60484
O         76.84021       46.41369       11.36651
H         76.69979       47.33316       11.70539
H         76.96141       45.86781       12.18334
O         71.45641       46.24326       10.70316
H         71.19361       46.48426       11.62616
H         70.78196       46.68482       10.12933
O         74.14883       44.17502       10.05285
H         74.67064       43.33730        9.97880
H         73.79100       44.32902        9.14297

Ca 1.0



