%chk=apoCaM-CA-Ng.loop2.water4.frame82.chk
%nprocshared=20
%mem=10GB
%nosave
#b3lyp/svp scf=(tight,noincore,xqc) Test 
#IOP(5/87=12) Density=Current Pop=(MK,readradii) iop(6/33=2) iop(6/42=6)

apoCaM-CA-Ng.loop2.water4.frame82 

   -2  1 
C         41.84068       49.34775       39.69672
C         42.13529       48.34084       40.77059
O         43.29904       48.06496       41.02507
H         41.26656       50.19547       40.12783
H         42.78076       49.74566       39.25737
H         41.24109       48.87379       38.89213
N         41.11003       47.76809       41.46290
C         41.30362       46.81257       42.55451
C         40.59506       45.47575       42.32727
O         40.74229       44.59673       43.16465
C         40.84572       47.46161       43.88109
C         39.37609       47.80702       43.97311
O         38.59643       47.55159       43.06873
O         38.91434       48.40598       45.08652
H         40.15234       48.06628       41.22532
H         42.38642       46.58416       42.66473
H         41.42873       48.39764       44.02321
H         41.08977       46.77972       44.72345
N         39.80517       45.25114       41.23675
C         39.05284       44.02675       40.97932
C         39.95109       42.82009       40.77909
O         39.67356       41.75371       41.31188
C         37.97576       43.79624       42.05152
H         39.70096       45.99135       40.52968
H         38.52483       44.17267       40.01064
H         37.35224       42.91544       41.78713
H         38.43089       43.61272       43.04712
H         37.31419       44.68471       42.12020
N         41.04270       42.92253       39.97359
C         41.88319       41.80364       39.57042
C         42.38231       40.99778       40.76088
O         42.16948       39.79183       40.79445
C         41.14129       40.90032       38.55108
C         40.64991       41.62412       37.32465
O         40.08667       40.99578       36.44338
O         40.81106       42.95202       37.18301
H         41.28906       43.85062       39.59634
H         42.77164       42.21697       39.04150
H         40.26798       40.41653       39.03767
H         41.84304       40.10528       38.21314
N         43.09087       41.59067       41.76236
C         43.70508       40.81946       42.83468
C         45.19403       40.94903       42.71012
O         45.86104       41.27599       43.68113
H         43.26241       42.60736       41.72681
H         43.46388       39.73866       42.74917
H         43.34515       41.16576       43.82728
N         45.76827       40.74871       41.48959
C         47.19154       40.88796       41.20783
C         47.77867       42.20807       41.68758
O         47.05354       43.11910       42.06346
C         47.46566       40.72563       39.68770
C         46.74838       41.77051       38.84437
N         47.44094       42.68489       38.12982
O         45.52762       41.78830       38.79892
H         45.14356       40.47859       40.71780
H         47.71244       40.08352       41.77211
H         47.14359       39.71789       39.34863
H         48.56028       40.79435       39.51194
H         48.46937       42.70909       38.14700
H         46.93760       43.38292       37.56356
N         49.13288       42.33515       41.73610
C         49.83031       43.49760       42.25298
C         50.77766       44.06138       41.22752
O         50.78265       43.61534       40.08702
H         49.71491       41.53773       41.43552
H         50.42641       43.16463       43.12979
H         49.13540       44.29597       42.59047
N         51.65641       45.03753       41.59056
C         52.64712       45.57247       40.66093
C         52.01944       46.40357       39.54477
O         52.74096       46.73899       38.61603
C         53.76459       46.36837       41.38888
C         53.27748       47.64502       42.09073
O         54.45814       45.53724       42.28847
H         51.65414       45.34321       42.57442
H         53.15483       44.70091       40.18731
H         54.50335       46.68945       40.62199
H         53.87853       45.37455       43.07673
H         54.14210       48.16551       42.55342
H         52.81661       48.33297       41.35715
H         52.53866       47.41919       42.88624
N         50.69999       46.76852       39.55373
C         50.06378       47.48656       38.44812
C         48.98974       46.62070       37.82529
O         48.71592       45.54096       38.33286
C         49.49595       48.86595       38.89002
C         48.41520       48.73410       39.99549
C         50.64724       49.78974       39.31720
C         47.66623       50.04138       40.25946
H         50.10601       46.50351       40.35143
H         50.80128       47.67013       37.63645
H         49.02141       49.32839       37.99723
H         48.87142       48.37510       40.94301
H         47.64998       47.99432       39.67698
H         50.28780       50.81620       39.52594
H         51.14577       49.39635       40.22394
H         51.39661       49.86619       38.50018
H         48.34339       50.83587       40.63015
H         47.16752       50.38670       39.32825
H         46.88710       49.87034       41.03175
N         48.37841       47.01263       36.66992
C         47.43328       46.14877       35.97878
C         47.28982       46.55909       34.51084
O         46.18797       46.60163       33.98254
C         46.09971       46.11468       36.76309
C         45.08680       45.14311       36.23752
O         45.32805       44.40715       35.29432
O         43.85873       45.14958       36.77052
H         48.67120       47.89809       36.23006
H         47.88435       45.13219       35.94439
H         45.65848       47.13605       36.72659
H         46.27109       45.86117       37.82917
N         48.40910       46.83746       33.78328
C         48.44186       47.01468       32.33491
C         47.34959       47.94760       31.80195
O         47.31050       49.09624       32.22074
C         49.82126       47.57433       31.91449
C         49.97230       47.59940       30.41532
C         50.09384       46.39420       29.70469
C         49.98617       48.81705       29.71476
C         50.22331       46.40577       28.31424
C         50.10654       48.82390       28.32172
C         50.22607       47.61946       27.62236
H         49.31351       46.84435       34.27935
H         48.32954       46.00114       31.90810
H         50.65189       46.96816       32.33727
H         49.91694       48.60027       32.33661
H         50.09139       45.44695       30.23001
H         49.88791       49.75765       30.24260
H         50.31919       45.47294       27.77428
H         50.10508       49.76296       27.78395
H         50.32095       47.62607       26.54463
N         46.45396       47.54006       30.84115
C         45.44534       48.39005       30.22205
C         44.60605       49.18806       31.19464
O         44.54850       50.40190       31.05452
C         44.57229       47.40198       29.43566
C         45.59773       46.39718       28.97850
C         46.44425       46.21979       30.23462
H         45.96821       49.08178       29.52214
H         43.88770       46.85713       30.12261
H         43.96470       47.86345       28.62865
H         45.19858       45.45173       28.55395
H         46.22214       46.89963       28.20343
H         46.00321       45.50197       30.95543
H         47.44231       45.87263       29.90167
N         43.92303       48.57743       32.20415
C         43.09283       49.31717       33.14825
C         43.93979       50.33501       33.88947
O         43.62679       51.51567       33.81901
C         42.34778       48.36639       34.11634
C         41.32429       47.49431       33.35321
C         40.47792       46.65338       34.26799
O         39.75788       47.18167       35.09990
O         40.52654       45.31033       34.19089
H         44.00578       47.55540       32.30406
H         42.30753       49.87174       32.58528
H         41.79130       48.98892       34.85104
H         43.06864       47.72701       34.67422
H         41.85465       46.83130       32.63879
H         40.63657       48.14814       32.77534
N         45.05845       49.95787       34.56899
C         45.94785       50.90031       35.22077
H         46.95367       50.83670       34.75329
H         45.59608       51.95041       35.13074
H         46.03388       50.64900       36.29732
H         45.31723       48.96218       34.59819
Ca        42.23359       44.52580       35.38238
O         44.51122       41.78495       33.24510
H         45.41346       41.70853       33.64567
H         44.54002       41.19803       32.44855
O         43.84304       44.75938       32.71814
H         44.78162       44.44607       32.69941
H         43.66346       45.05655       31.79198
O         41.46581       42.41156       32.84803
H         41.74703       42.24217       31.91373
H         40.97805       41.59173       33.11336
O         43.66085       41.20296       36.07777
H         44.46896       40.63722       35.99274
H         43.99969       42.07258       36.40782

Ca 1.0



