%chk=apoCaM-CA-Ng.loop2.water4.frame1246.chk
%nprocshared=20
%mem=10GB
%nosave
#b3lyp/svp scf=(tight,noincore,xqc) Test 
#IOP(5/87=12) Density=Current Pop=(MK,readradii) iop(6/33=2) iop(6/42=6)

apoCaM-CA-Ng.loop2.water4.frame1246 

   -2  1 
C         39.83069       42.53410       27.04385
C         39.69773       41.90007       25.68295
O         40.42997       42.29838       24.78890
H         38.87385       43.01955       27.32593
H         40.11375       41.79919       27.81740
H         40.62113       43.31405       27.03038
N         38.77547       40.93407       25.39890
C         37.86292       40.34473       26.38026
C         36.61542       39.75958       25.70479
O         36.45716       39.87968       24.49731
C         38.61556       39.30664       27.25558
C         39.07425       38.12985       26.46085
O         39.81701       38.27833       25.50331
O         38.64789       36.89944       26.78142
H         38.73271       40.60471       24.42133
H         37.47706       41.14655       27.04428
H         37.95821       38.95046       28.07528
H         39.50123       39.75375       27.73683
N         35.66416       39.13208       26.45335
C         34.38611       38.64659       25.94661
C         34.52276       37.66508       24.78551
O         33.90944       37.87668       23.74799
C         33.46698       39.83336       25.61637
H         35.82919       39.01122       27.46253
H         33.88482       38.09773       26.77514
H         32.45829       39.46645       25.32686
H         33.34888       40.47560       26.51586
H         33.87769       40.44874       24.78965
N         35.25008       36.51990       24.93060
C         35.24840       35.43781       23.93386
C         35.88104       34.15702       24.48857
O         36.40587       34.15328       25.59368
C         35.87513       35.86126       22.57266
C         37.33844       36.15503       22.68431
O         37.76401       37.27907       22.46904
O         38.18003       35.17965       23.07136
H         35.73289       36.38898       25.83149
H         34.18294       35.18088       23.74462
H         35.34747       36.74983       22.17007
H         35.74382       35.05218       21.82377
N         35.79681       32.99748       23.77995
C         36.24145       31.71169       24.29586
C         37.74285       31.55337       24.41840
O         38.50118       32.45877       24.10222
H         35.30758       33.00377       22.87284
H         35.89241       30.91723       23.60281
H         35.76596       31.53391       25.28548
N         38.22732       30.36058       24.87066
C         39.64614       30.03488       25.00355
C         40.31926       30.07417       23.64992
O         39.84250       29.42615       22.72743
C         39.84603       28.62811       25.60692
C         39.37424       28.54408       27.04071
N         40.25106       28.27786       28.03730
O         38.19425       28.71150       27.30887
H         37.53474       29.63810       25.11822
H         40.13757       30.75996       25.69006
H         40.93413       28.39630       25.58026
H         39.32431       27.86164       24.99254
H         41.25209       28.13315       27.84017
H         39.92873       28.22005       29.01443
N         41.44819       30.81546       23.47085
C         42.11154       30.96638       22.19149
C         42.10899       32.43547       21.84689
O         42.78489       33.18485       22.53627
H         41.84848       31.31773       24.27500
H         41.60887       30.35479       21.42188
H         43.15712       30.59626       22.25103
N         41.33493       32.96982       20.86053
C         40.46184       32.18972       19.98754
C         41.27361       31.34031       19.02969
O         40.83397       30.24558       18.70506
C         39.45496       33.08463       19.23632
C         38.47235       33.72539       20.22107
O         40.13148       34.09004       18.52269
H         41.34769       33.99711       20.75929
H         39.83815       31.50930       20.61112
H         38.84794       32.44184       18.55359
H         39.86816       34.01343       17.57008
H         39.02046       34.36213       20.93984
H         37.72954       34.35011       19.68448
H         37.92202       32.93921       20.78601
N         42.49185       31.75469       18.57429
C         43.35188       30.89709       17.75943
C         43.74175       29.65467       18.56086
O         43.85295       29.76581       19.77380
C         44.59669       31.65387       17.20446
C         45.51686       32.22862       18.31758
C         44.12638       32.75124       16.22976
C         46.81470       32.82808       17.76900
H         42.81667       32.69448       18.83864
H         42.74718       30.57879       16.88468
H         45.18853       30.91895       16.61459
H         45.79735       31.41660       19.01513
H         44.99830       33.00883       18.91084
H         44.98023       33.23023       15.71275
H         43.48401       32.30777       15.43918
H         43.54373       33.53431       16.75886
H         46.61523       33.71566       17.13537
H         47.45842       33.15832       18.61106
H         47.36668       32.07088       17.17421
N         43.86451       28.40772       18.01687
C         43.82801       28.08033       16.59569
C         45.00509       27.17685       16.23947
O         45.32747       26.26974       16.99302
C         42.47012       27.48679       16.17858
C         42.08673       26.21789       16.88214
O         41.89761       25.19790       16.23936
O         41.89073       26.20990       18.21396
H         43.99597       27.62304       18.67450
H         43.91878       28.99762       15.98108
H         42.49760       27.30933       15.07958
H         41.67774       28.24299       16.37192
N         45.67480       27.37102       15.07097
C         46.88042       26.65384       14.66170
C         47.90739       27.68761       14.20398
O         47.55379       28.48677       13.34727
C         46.56981       25.73244       13.45518
C         47.85232       25.18550       12.84962
C         48.30284       25.70022       11.62040
C         48.63784       24.22740       13.51619
C         49.52107       25.28562       11.07947
C         49.85540       23.80639       12.96390
C         50.29870       24.34094       11.75053
H         45.30205       28.07860       14.41997
H         47.26830       26.01376       15.48004
H         46.04510       26.34754       12.69243
H         45.88167       24.90497       13.73580
H         47.72587       26.45068       11.09525
H         48.31815       23.81730       14.46588
H         49.86622       25.70836       10.14477
H         50.46464       23.07608       13.48109
H         51.24668       24.02863       11.33107
N         49.21126       27.70750       14.62262
C         49.84727       26.78487       15.54829
C         49.81699       27.30783       16.97726
O         50.44260       26.69441       17.82960
C         51.29105       26.77326       15.02579
C         51.50228       28.23935       14.68355
C         50.18935       28.57473       13.98762
H         49.44807       25.75434       15.51529
H         52.04441       26.33435       15.71406
H         51.31602       26.19832       14.07124
H         51.55629       28.80673       15.63944
H         52.40725       28.47471       14.08500
H         49.94480       29.65490       14.08069
H         50.24592       28.28950       12.91324
N         49.15701       28.45854       17.30042
C         49.23274       29.08622       18.61258
C         49.84851       30.47550       18.45541
O         49.84028       31.00416       17.35208
C         47.81588       29.18303       19.21203
C         47.16105       27.81455       19.44568
C         47.89867       26.99438       20.46373
O         48.35279       25.90275       20.16071
O         48.04779       27.45262       21.72126
H         48.60682       28.95104       16.58303
H         49.88471       28.49244       19.28507
H         47.18096       29.74550       18.49781
H         47.82455       29.73819       20.17113
H         47.10543       27.26500       18.48404
H         46.12703       27.97217       19.81629
N         50.44442       31.14357       19.48313
C         50.61414       30.60362       20.81367
H         51.16094       31.33612       21.44441
H         49.63526       30.40242       21.28729
H         51.21748       29.67225       20.77182
H         50.83865       32.07893       19.29518
Ca        38.95449       35.45362       25.13022
O         38.76815       32.78857       27.29374
H         37.84934       32.45136       27.44185
H         39.29712       32.40369       28.03677
O         41.36691       36.17882       23.50732
H         40.79100       36.58255       22.81064
H         42.17267       35.87441       23.02004
O         40.73633       35.20381       27.94495
H         40.74987       36.13589       28.27756
H         40.41982       34.66937       28.71550
O         41.38986       33.42787       25.72953
H         41.66258       33.78529       24.84840
H         42.18413       32.93439       26.05499

Ca 1.0



