%chk=apoCaM-CA-Ng.loop3.water5.frame288.chk
%nprocshared=20
%mem=10GB
%nosave
#b3lyp/svp scf=(tight,noincore,xqc) Test 
#IOP(5/87=12) Density=Current Pop=(MK,readradii) iop(6/33=2) iop(6/42=6)

apoCaM-CA-Ng.loop3.water5.frame288 

   0  1 
C         49.01045       30.94401       22.42348
C         49.52173       29.99111       21.38363
O         48.73913       29.45717       20.61192
H         47.90631       31.04212       22.36937
H         49.28314       30.56423       23.43264
H         49.47493       31.94159       22.27949
N         50.85132       29.70823       21.34294
C         51.48127       28.74177       20.45154
C         50.90115       27.34861       20.65949
O         50.66356       26.61587       19.70883
C         51.46663       29.23544       18.99804
C         52.28176       28.36791       18.07786
O         51.75775       27.83025       17.11527
O         53.59777       28.19115       18.30434
H         51.46398       30.17292       22.03201
H         52.54841       28.68504       20.76519
H         51.90571       30.25489       18.97647
H         50.42063       29.28731       18.64621
N         50.70199       26.91419       21.93142
C         50.36570       25.53998       22.29092
C         48.99237       25.08329       21.79264
O         48.68882       23.90989       21.96221
C         50.45386       25.34910       23.83065
C         51.80510       25.81660       24.42244
C         51.88442       25.61080       25.93623
C         53.13294       26.31365       26.49666
N         53.24942       26.11849       27.93925
H         50.86834       27.60008       22.67534
H         51.13759       24.88432       21.82934
H         50.30954       24.27224       24.06840
H         49.63724       25.92875       24.31553
H         51.93858       26.90122       24.26098
H         52.64911       25.28903       23.92785
H         51.90845       24.52244       26.15887
H         50.98963       26.05956       26.42105
H         53.05882       27.40608       26.28653
H         54.04775       25.92667       25.99612
H         53.38372       25.10336       28.14930
H         54.07890       26.65183       28.28758
H         52.39248       26.47336       28.42265
N         48.10257       25.93011       21.18937
C         46.78329       25.49621       20.72094
C         46.92643       24.43913       19.62704
O         47.97962       24.36102       19.00750
C         45.97698       26.73831       20.26184
C         44.53353       26.47976       19.93155
O         44.22700       25.79664       18.97277
O         43.56309       27.05415       20.66738
H         48.34936       26.92289       21.08895
H         46.25925       25.04422       21.59304
H         46.47433       27.21889       19.39109
H         45.98825       27.46591       21.10331
N         45.93739       23.52337       19.40165
C         46.09599       22.41304       18.47021
C         46.22364       22.82205       17.01548
O         46.55983       21.96435       16.21150
H         45.07707       23.56217       19.96773
H         45.23450       21.71546       18.55462
H         47.01015       21.85322       18.76522
N         45.94665       24.08810       16.59248
C         46.10651       24.53959       15.21404
C         47.06770       25.72199       15.20886
O         48.08695       25.64969       14.53742
C         44.72415       24.77070       14.56824
C         43.97120       26.01445       15.04448
N         44.35828       27.17730       14.24590
O         42.59185       25.81887       14.95696
H         45.58798       24.76198       17.27457
H         46.55632       23.72566       14.60229
H         44.12077       23.86323       14.79637
H         44.81549       24.80831       13.46047
H         44.14513       26.98962       13.23839
H         43.75633       27.98455       14.51234
N         46.87041       26.77973       16.05387
C         47.87571       27.79638       16.31869
C         47.31566       29.19634       16.33021
O         46.16829       29.41228       15.97352
H         46.03372       26.79822       16.65401
H         48.74729       27.73195       15.63410
H         48.24216       27.60797       17.35171
N         48.09642       30.20529       16.80644
C         47.63739       31.57945       16.99137
C         46.44340       31.64141       17.92721
O         46.23840       30.74342       18.73321
C         48.79745       32.46079       17.50286
C         49.77963       32.67673       16.37781
C         50.96964       31.93914       16.28288
C         49.47392       33.61494       15.37887
C         51.83116       32.12607       15.19697
C         50.34140       33.81318       14.30389
C         51.52101       33.06286       14.20480
O         52.35753       33.23045       13.16126
H         49.05821       29.96693       17.07867
H         47.29243       31.96602       16.00628
H         49.26878       31.96115       18.38021
H         48.44700       33.45831       17.84873
H         51.21903       31.20307       17.02791
H         48.56120       34.19550       15.43786
H         52.73645       31.53651       15.12273
H         50.09009       34.54415       13.54623
H         52.17179       33.86242       12.45191
N         45.52765       32.63145       17.73703
C         44.21432       32.67252       18.36790
C         43.18696       32.43218       17.27248
O         42.39253       31.51367       17.40920
C         43.97481       34.01394       19.11909
C         45.05716       34.20680       20.21364
C         42.56050       34.02416       19.74254
C         44.91040       35.50200       21.01746
H         45.74111       33.35017       17.02929
H         44.11024       31.85405       19.11736
H         44.04290       34.85386       18.39219
H         46.05725       34.22778       19.72990
H         45.03321       33.35061       20.92323
H         42.33202       35.00197       20.21084
H         41.78095       33.86997       18.97480
H         42.45886       33.22051       20.50248
H         44.92759       36.38363       20.34327
H         43.97280       35.50651       21.61034
H         45.75051       35.58447       21.73848
N         43.17531       33.18681       16.13167
C         42.27227       32.90517       15.01914
C         40.90838       33.54330       15.21503
O         40.01033       33.23523       14.44283
C         42.91252       33.31008       13.68470
O         43.14569       34.69340       13.65238
H         43.87306       33.93571       16.01863
H         42.12489       31.80223       14.96151
H         42.25128       33.02733       12.83708
H         43.86809       32.74090       13.58026
H         44.01285       34.82920       13.18856
N         40.66128       34.39551       16.25453
C         39.34103       34.89021       16.62257
C         38.43070       33.70477       16.90716
O         37.32949       33.62422       16.38275
C         38.78687       35.85425       15.56321
H         41.43247       34.66201       16.88114
H         39.45110       35.46488       17.56922
H         39.49534       36.69764       15.41724
H         38.63728       35.34662       14.58823
H         37.81329       36.27014       15.89817
N         38.91047       32.68748       17.67742
C         38.22660       31.41992       17.87946
C         38.37977       30.96476       19.31434
O         39.47238       31.06974       19.85202
C         38.86743       30.37747       16.96703
H         39.87871       32.76003       18.02310
H         37.15470       31.47294       17.58740
H         38.35773       29.39859       17.09812
H         38.75565       30.68822       15.90568
H         39.94787       30.26010       17.19188
N         37.33408       30.39048       19.97877
C         37.41636       29.85088       21.33745
C         37.62157       30.93112       22.39456
O         37.69524       30.57980       23.56483
C         38.49605       28.73848       21.45127
C         38.24314       27.57825       20.47456
C         39.30644       26.52164       20.59521
O         39.98880       26.22392       19.62764
O         39.50325       25.88651       21.76653
H         36.43740       30.28257       19.48202
H         36.43927       29.37519       21.57659
H         38.48855       28.32959       22.48561
H         39.50775       29.15474       21.28258
H         38.22917       27.95941       19.43047
H         37.25669       27.11755       20.69587
N         37.68271       32.25985       22.08799
C         37.84417       33.27262       23.10734
H         36.99406       33.22757       23.82098
H         38.79874       33.11586       23.65242
H         37.86067       34.28015       22.63965
H         37.59411       32.58631       21.11723
Ca        41.94299       26.12261       17.12562
O         42.48509       23.49353       18.54422
H         42.59213       23.65759       19.51476
H         41.51548       23.33357       18.42707
O         39.67612       24.43437       16.34789
H         40.15105       24.21366       15.50750
H         39.19615       25.27677       16.14750
O         40.49709       28.09380       15.64026
H         40.56881       28.63095       14.81264
H         39.57751       27.72769       15.62531
O         41.73939       28.81571       18.95362
H         40.99188       29.09842       19.53055
H         42.48480       29.41669       19.20529
O         43.31858       28.82139       16.76499
H         44.12376       28.41402       17.17155
H         43.65479       29.57750       16.22273

Ca 1.0



