%chk=apoCaM-CA-Ng.loop4.water5.frame786.chk
%nprocshared=20
%mem=10GB
%nosave
#b3lyp/svp scf=(tight,noincore,xqc) Test 
#IOP(5/87=12) Density=Current Pop=(MK,readradii) iop(6/33=2) iop(6/42=6)

apoCaM-CA-Ng.loop4.water5.frame786 

   -3  1 
C        -16.12048      -13.24514        0.35352
C        -17.03061      -14.34754       -0.10611
O        -16.96147      -14.74166       -1.26038
H        -15.46541      -12.89892       -0.47329
H        -16.71141      -12.38543        0.72716
H        -15.47881      -13.62084        1.17909
N        -17.89522      -14.92064        0.77626
C        -18.74717      -16.06707        0.47512
C        -17.89018      -17.24437        0.03807
O        -18.13805      -17.82536       -1.01107
C        -19.83911      -15.73921       -0.57255
C        -20.74054      -14.61906       -0.14924
O        -21.44339      -14.70638        0.99576
O        -20.87271      -13.64069       -0.86523
H        -17.91193      -14.56150        1.74378
H        -19.26099      -16.36238        1.41770
H        -20.47487      -16.63921       -0.71773
H        -19.37354      -15.48902       -1.55055
N        -16.82294      -17.62761        0.79348
C        -15.95168      -18.73026        0.40058
C        -16.73613      -20.03936        0.43236
O        -17.29267      -20.34550        1.47680
C        -14.64705      -18.79970        1.26889
C        -14.88656      -18.98254        2.79467
C        -13.77934      -17.55625        0.98013
C        -13.60077      -19.27707        3.57288
H        -16.61281      -17.08762        1.64499
H        -15.61656      -18.52581       -0.63455
H        -14.07554      -19.68530        0.91805
H        -15.54040      -19.85493        2.97550
H        -15.37460      -18.08567        3.22982
H        -14.28113      -16.62760        1.32443
H        -12.78777      -17.62713        1.46794
H        -13.58634      -17.46823       -0.11083
H        -13.84693      -19.44232        4.64289
H        -13.12100      -20.19882        3.17843
H        -12.88054      -18.43748        3.52100
N        -16.89659      -20.86990       -0.64354
C        -16.31703      -20.71104       -1.97887
C        -16.95101      -21.75533       -2.89753
O        -16.27482      -22.65347       -3.38278
C        -14.77157      -20.85859       -1.93675
C        -14.14552      -20.63971       -3.28671
O        -13.41773      -21.61834       -3.85614
O        -14.27937      -19.57184       -3.86377
H        -17.50344      -21.69203       -0.48791
H        -16.58009      -19.70930       -2.38499
H        -14.50635      -21.86796       -1.55455
H        -14.30827      -20.12200       -1.26374
N        -18.28883      -21.69756       -3.15103
C        -19.00604      -22.69413       -3.93315
C        -18.63505      -22.76083       -5.40368
O        -19.23097      -23.57510       -6.09425
H        -18.83993      -20.93677       -2.72391
H        -20.09176      -22.45783       -3.88772
H        -18.85450      -23.69194       -3.46937
N        -17.69989      -21.94319       -5.96634
C        -17.37846      -21.94495       -7.38743
C        -15.93178      -22.32982       -7.63722
O        -15.70390      -23.16648       -8.50163
C        -17.77091      -20.59998       -8.04640
C        -17.14584      -19.35211       -7.47299
O        -17.36171      -19.00224       -6.19144
O        -16.51240      -18.59873       -8.19440
H        -17.21019      -21.26280       -5.37707
H        -17.99434      -22.69718       -7.93142
H        -18.87164      -20.48519       -7.95092
H        -17.53647      -20.66486       -9.13366
N        -14.89512      -21.78770       -6.93300
C        -13.51156      -22.08680       -7.26991
C        -13.08630      -21.36912       -8.53405
O        -11.99554      -21.63191       -9.01847
H        -15.07918      -21.14065       -6.15421
H        -13.38298      -23.18763       -7.36518
H        -12.83279      -21.73495       -6.46467
N        -13.87144      -20.38988       -9.07992
C        -13.55045      -19.59723      -10.25784
C        -12.33142      -18.70152      -10.04761
O        -11.94860      -18.01724      -10.98736
C        -13.45510      -20.49695      -11.51003
C        -14.70971      -21.39120      -11.62827
C        -14.75956      -22.23646      -12.87271
N        -15.78025      -23.10960      -13.04050
O        -13.89203      -22.14568      -13.72885
H        -14.76584      -20.16482       -8.64074
H        -14.40497      -18.90621      -10.44379
H        -12.55121      -21.14016      -11.46846
H        -13.37871      -19.84216      -12.40640
H        -15.62561      -20.76124      -11.60241
H        -14.73471      -22.08407      -10.76156
H        -16.51267      -23.20454      -12.32041
H        -15.83617      -23.69949      -13.88342
N        -11.70272      -18.61109       -8.83416
C        -10.54790      -17.76350       -8.56518
C        -10.84943      -16.70062       -7.51353
O         -9.97131      -15.89007       -7.26141
C         -9.32647      -18.62496       -8.13557
C         -9.58941      -19.44650       -6.85827
C         -8.88973      -19.55067       -9.27794
H        -12.05984      -19.15106       -8.03820
H        -10.26070      -17.20464       -9.48371
H         -8.47545      -17.93895       -7.92749
H        -10.38660      -20.20267       -7.01328
H         -8.66781      -19.98872       -6.55978
H         -9.88367      -18.78390       -6.01728
H         -7.98408      -20.12165       -8.98309
H         -9.69381      -20.26938       -9.53983
H         -8.64144      -18.94998      -10.17897
N        -12.06140      -16.61677       -6.88215
C        -12.39087      -15.55272       -5.93960
C        -13.50266      -14.70879       -6.53397
O        -14.18214      -15.16017       -7.44314
C        -12.79897      -16.16794       -4.58545
C        -13.11930      -15.12576       -3.54258
N        -14.35379      -15.05441       -2.99323
O        -12.25413      -14.33870       -3.18904
H        -12.80576      -17.29307       -7.09544
H        -11.51088      -14.89226       -5.78547
H        -11.96596      -16.79567       -4.20096
H        -13.67810      -16.83052       -4.74325
H        -15.10021      -15.70683       -3.27471
H        -14.56464      -14.33707       -2.28501
N        -13.68146      -13.42119       -6.11750
C        -14.69822      -12.56084       -6.72190
C        -14.49705      -11.09811       -6.32095
O        -13.64597      -10.80666       -5.49838
C        -16.10233      -13.05453       -6.27050
C        -17.22227      -12.56687       -7.15191
C        -18.19305      -11.67332       -6.67159
C        -17.30987      -13.03230       -8.47473
C        -19.22713      -11.24203       -7.51009
C        -18.35010      -12.61163       -9.30543
C        -19.30977      -11.71336       -8.82985
O        -20.30428      -11.31373       -9.64770
H        -13.03457      -13.05205       -5.40971
H        -14.57238      -12.62943       -7.82462
H        -16.25092      -12.75874       -5.20741
H        -16.17006      -14.16217       -6.29596
H        -18.14278      -11.30250       -5.65652
H        -16.57814      -13.73324       -8.85800
H        -19.96418      -10.54452       -7.13326
H        -18.40989      -12.98667      -10.31962
H        -20.98879      -10.69269       -9.36156
N        -15.27724      -10.11958       -6.86263
C        -15.25135       -8.73683       -6.40899
C        -16.62623       -8.41598       -5.85210
O        -17.46158       -7.93283       -6.60425
C        -14.88710       -7.76982       -7.55625
C        -13.45703       -7.96901       -8.06872
C        -13.12220       -6.92541       -9.09752
O        -13.14547       -5.61908       -8.76632
O        -12.81967       -7.25329      -10.23328
H        -15.95651      -10.36369       -7.59452
H        -14.49386       -8.56726       -5.62313
H        -14.97084       -6.73269       -7.15898
H        -15.60274       -7.88116       -8.40134
H        -13.35588       -8.98567       -8.50671
H        -12.73764       -7.86993       -7.22745
N        -17.00264       -8.70232       -4.57127
C        -16.15638       -9.26043       -3.51420
C        -15.05210       -8.29189       -3.13319
O        -15.34266       -7.13723       -2.85061
C        -17.00299       -9.51378       -2.25110
C        -18.01461      -10.65331       -2.43937
C        -18.92404      -10.71694       -1.25089
O        -18.91181      -11.78336       -0.43506
O        -19.67498       -9.78547       -1.01022
H        -17.98433       -8.48781       -4.33246
H        -15.72465      -10.23517       -3.82999
H        -17.52360       -8.56701       -1.98226
H        -16.34225       -9.79728       -1.39987
H        -17.45651      -11.60962       -2.55601
H        -18.64292      -10.50312       -3.34100
N        -13.75935       -8.71864       -3.06069
C        -12.65188       -7.86706       -2.67776
H        -11.89581       -7.86079       -3.49023
H        -12.96806       -6.82131       -2.48223
H        -12.18273       -8.27000       -1.75524
H        -13.54193       -9.70519       -3.25984
Ca       -20.21319      -11.76154        1.41384
O        -18.38757       -8.90388        1.49520
H        -18.82279       -8.01997        1.59305
H        -17.68782       -8.76124        0.80928
O        -22.09351       -8.64100        0.41585
H        -22.93725       -8.52769        0.92132
H        -21.93200       -7.75802       -0.00181
O        -22.92601      -11.33246       -0.98334
H        -23.51293      -10.58139       -1.25086
H        -22.33193      -11.47173       -1.76301
O        -23.28696      -12.13786        2.14540
H        -23.48890      -13.04843        2.47785
H        -24.14972      -11.80541        1.79121
O        -21.02447       -9.39761        3.23957
H        -22.00441       -9.38072        3.37996
H        -20.64061       -9.20440        4.13135

Ca 1.0



