%chk=apoCaM-CA-Ng.loop1.water2.frame238.chk
%nprocshared=20
%mem=10GB
%nosave
#b3lyp/svp scf=(tight,noincore,xqc) Test 
#IOP(5/87=12) Density=Current Pop=(MK,readradii) iop(6/33=2) iop(6/42=6)

apoCaM-CA-Ng.loop1.water2.frame238 

   0  1 
C         43.65084       17.04698      104.75827
C         42.89155       15.76862      104.53785
O         41.78961       15.63491      105.04990
H         44.62971       17.03562      104.23202
H         43.05991       17.90195      104.36667
H         43.83550       17.19453      105.84173
N         43.41493       14.78797      103.75290
C         42.70402       13.55336      103.43319
C         42.66521       12.55807      104.59983
O         42.11785       11.48692      104.39877
C         43.37381       12.85327      102.22089
C         43.35303       13.68228      100.95956
O         44.01138       14.85494      100.89047
O         42.75947       13.27430       99.97368
H         44.33235       14.96078      103.31504
H         41.66336       13.80213      103.12455
H         42.81797       11.91807      102.00197
H         44.42461       12.58327      102.46544
N         43.26062       12.78877      105.80930
C         43.42136       11.75179      106.83557
C         42.78949       12.13041      108.17170
O         42.99448       13.26027      108.59225
C         44.92671       11.50538      107.03878
C         45.52676       10.79066      105.81969
C         47.02951       10.54841      106.00266
C         47.63551        9.71613      104.86009
N         47.22510        8.30960      104.92245
H         43.70979       13.69747      105.98918
H         43.00281       10.79903      106.49938
H         45.08006       10.84083      107.91529
H         45.44693       12.46679      107.24526
H         45.36765       11.38956      104.89614
H         44.99143        9.82688      105.70705
H         47.23513       10.03544      106.96739
H         47.52471       11.54341      106.02351
H         48.74256        9.75196      104.95253
H         47.36023       10.16116      103.87777
H         47.64389        7.79435      104.11508
H         47.56747        7.87842      105.81125
H         46.19158        8.20206      104.87945
N         42.09811       11.24837      108.97911
C         41.79531        9.83007      108.72045
C         43.06013        9.02564      108.45243
O         43.24453        8.54729      107.34213
C         40.71505        9.68909      107.62807
C         39.39743       10.24619      108.07251
O         39.24537       10.77067      109.30466
O         38.45589       10.25252      107.29596
H         41.78249       11.61062      109.89289
H         41.33745        9.37208      109.62622
H         40.55605        8.62762      107.37123
H         41.01132       10.21579      106.71142
N         44.00014        8.81390      109.41642
C         43.79546        9.15529      110.81805
C         45.04582        8.96935      111.65847
O         46.12005        8.77827      111.10643
H         44.86121        8.31947      109.13703
H         42.97620        8.51143      111.19855
H         43.50247       10.21928      110.92698
N         45.02378        9.07503      113.01726
C         43.80836        9.17874      113.81647
C         43.06162        7.84935      113.82257
O         43.67519        6.81222      114.03242
C         44.12515        9.66125      115.25575
C         45.06311        8.79014      116.05187
O         46.13348        9.23874      116.43067
O         44.71306        7.53848      116.40093
H         45.93007        9.04737      113.51035
H         43.15609        9.98290      113.40765
H         43.17575        9.76852      115.82530
H         44.57485       10.67620      115.17187
N         41.71039        7.82144      113.67319
C         40.91887        6.61133      113.82296
C         40.90234        5.73244      112.59296
O         41.18078        4.54591      112.68939
H         41.20490        8.71540      113.57666
H         39.86008        6.91538      113.97459
H         41.22509        6.05695      114.73769
N         40.45083        6.25052      111.41975
C         40.09291        5.45132      110.24788
C         41.27821        4.71765      109.63888
O         42.29278        5.33766      109.35034
C         39.43301        6.32948      109.15792
C         38.17783        7.06327      109.65301
O         39.05730        5.51175      108.07965
H         40.26269        7.26251      111.40516
H         39.32097        4.71054      110.55473
H         40.19268        7.06720      108.83184
H         38.95919        6.10150      107.28754
H         37.74530        7.65449      108.81884
H         37.41932        6.33159      110.00230
H         38.39615        7.77369      110.47256
N         41.16237        3.38989      109.33508
C         42.21066        2.60882      108.67343
C         42.57954        3.13741      107.28235
O         43.57068        2.65893      106.74505
C         41.82705        1.09037      108.57341
C         40.56973        0.86250      107.68100
C         41.66113        0.48086      109.97936
C         40.20505       -0.61055      107.47833
H         40.28185        2.92262      109.58949
H         43.12509        2.69109      109.30261
H         42.68153        0.55712      108.09839
H         40.76236        1.28669      106.67323
H         39.68258        1.37773      108.10284
H         42.58225        0.64914      110.57610
H         40.79946        0.92123      110.52095
H         41.51339       -0.61674      109.92340
H         39.33834       -0.68243      106.78676
H         41.05788       -1.16642      107.03550
H         39.90473       -1.08784      108.43323
N         41.83826        4.07832      106.61899
C         42.17955        4.55271      105.27683
C         41.83193        6.02680      105.07253
O         41.16243        6.62562      105.90165
C         41.51419        3.66292      104.19753
C         39.98193        3.68192      104.29339
O         41.97449        2.34357      104.33745
H         40.96417        4.41031      107.03941
H         43.28436        4.48830      105.15297
H         41.81956        4.04850      103.19709
H         41.77941        1.87510      103.48391
H         39.59307        4.71353      104.16442
H         39.54817        3.04520      103.49387
H         39.64414        3.28667      105.27479
N         42.31962        6.68417      103.98302
C         42.11729        8.10953      103.73201
C         40.72554        8.43604      103.22343
O         40.31687        7.87489      102.21575
C         43.15744        8.66126      102.70996
C         43.12705        8.05465      101.29582
O         44.44337        8.49565      103.23799
H         42.95212        6.15847      103.36250
H         42.31697        8.67307      104.67144
H         42.94137        9.74753      102.60469
H         44.97862        9.28474      102.95794
H         42.16445        8.23718      100.78164
H         43.90902        8.54299      100.67666
H         43.33510        6.96641      101.31177
N         39.98934        9.43836      103.79115
C         38.87516       10.04926      103.07736
C         38.07821       10.99536      103.98157
O         36.90614       10.73150      104.20927
C         39.47085       10.82773      101.85891
C         38.45711       11.39529      100.85522
C         37.76888       10.33279       99.97801
C         38.76021        9.57842       99.06460
N         38.06036        8.66308       98.16572
H         40.30163        9.86236      104.67080
H         38.19560        9.23535      102.73963
H         40.19928       10.21056      101.30270
H         40.07925       11.67126      102.24217
H         39.00007       12.08489      100.17066
H         37.69920       11.99834      101.39857
H         37.04409       10.86673       99.32578
H         37.20393        9.61558      100.60851
H         39.48166        8.98878       99.66731
H         39.33407       10.31245       98.45467
H         37.40171        9.19488       97.55188
H         38.76231        8.17507       97.56270
H         37.53500        7.94890       98.71982
N         38.63266       12.14379      104.47999
C         37.89532       13.14615      105.24715
C         37.62000       14.33261      104.35321
O         38.55242       14.93351      103.83589
C         38.69965       13.57645      106.49793
C         38.13486       14.81089      107.24521
C         36.68394       14.72070      107.66477
O         36.26310       13.81598      108.57064
O         35.87873       15.51631      107.20842
H         39.60516       12.37237      104.23390
H         36.92002       12.74007      105.59446
H         39.73807       13.83841      106.19492
H         38.77530       12.71869      107.18136
H         38.24844       15.69192      106.57635
H         38.76138       15.00541      108.14233
N         36.33663       14.73849      104.14965
C         36.00744       15.88505      103.33660
H         34.90695       16.03803      103.33398
H         36.49013       16.79385      103.75461
H         36.35063       15.72041      102.29433
H         35.56163       14.22851      104.60105
Ca        37.73312       12.39250      109.45621
O         37.12120        9.69084      112.16933
H         36.25179        9.23424      112.04174
H         37.54549        9.20999      112.92396
O         34.90544       11.75609      110.61340
H         35.10127       11.19877      109.81854
H         34.28458       11.20698      111.15461

Ca 1.0



