%chk=apoCaM-CA-Ng.loop2.water4.frame1203.chk
%nprocshared=20
%mem=10GB
%nosave
#b3lyp/svp scf=(tight,noincore,xqc) Test 
#IOP(5/87=12) Density=Current Pop=(MK,readradii) iop(6/33=2) iop(6/42=6)

apoCaM-CA-Ng.loop2.water4.frame1203 

   -2  1 
C          8.77118      117.34120      105.84676
C          8.19052      115.97194      105.62191
O          7.09036      115.88946      105.09547
H          9.72335      117.43458      105.28203
H          8.07585      118.12628      105.47799
H          8.95368      117.51458      106.92655
N          8.85705      114.82557      105.94470
C         10.17346      114.76860      106.57820
C         10.09843      113.89061      107.83866
O          9.00772      113.72123      108.36729
C         11.22196      114.35564      105.51192
C         11.02979      112.95484      105.03289
O         10.58050      112.69705      103.79200
O         11.20912      112.02478      105.80030
H          8.41229      113.92692      105.69579
H         10.50211      115.77512      106.90703
H         12.25688      114.47262      105.89546
H         11.11175      115.05455      104.65307
N         11.21130      113.31275      108.38535
C         11.23089      112.55516      109.64151
C         10.37445      111.28358      109.68146
O         10.31401      110.68596      110.74935
C         10.90484      113.48535      110.81562
H         12.11840      113.44587      107.91767
H         12.27620      112.21562      109.81734
H          9.86786      113.87114      110.76375
H         11.03729      112.94505      111.77828
H         11.61487      114.34013      110.81355
N          9.75848      110.75390      108.58413
C          9.03960      109.47190      108.60966
C          9.87627      108.42041      107.88175
O         10.75451      108.79988      107.11430
C          7.58932      109.65415      108.07677
C          7.53740      110.05967      106.62355
O          8.67935      110.03527      105.91208
O          6.48824      110.41737      106.10980
H          9.87029      111.22872      107.68132
H          8.95367      109.11671      109.65787
H          7.12087      110.45942      108.68839
H          6.98890      108.73026      108.21291
N          9.76214      107.08714      108.16141
C         10.71137      106.11149      107.62679
C         10.73000      106.07744      106.11428
O          9.81817      106.59844      105.49007
H          9.05612      106.76868      108.84254
H         10.53478      105.09603      108.04061
H         11.72326      106.43294      107.96200
N         11.82465      105.58539      105.46258
C         12.04757      105.78905      104.03432
C         12.31493      104.50078      103.28856
O         13.20089      103.75165      103.68026
C         13.28011      106.69503      103.82766
C         13.15612      108.02335      104.52841
N         14.08749      108.41285      105.43078
O         12.21628      108.75986      104.27087
H         12.59032      105.17132      106.01778
H         11.18451      106.30997      103.56575
H         13.40420      106.88662      102.73853
H         14.19430      106.17211      104.18659
H         14.89421      107.81069      105.65304
H         14.01053      109.32552      105.90270
N         11.69140      104.26933      102.09796
C         12.13054      103.23010      101.18419
C         11.83598      101.82559      101.65486
O         11.13464      101.65926      102.64261
H         10.98668      104.94058      101.75687
H         13.22331      103.36104      101.03461
H         11.62565      103.37305      100.20667
N         12.34654      100.73339      101.00943
C         13.28839      100.81177       99.88845
C         12.66161      101.46035       98.66232
O         13.15373      102.48880       98.21950
C         13.89965       99.42363       99.52635
C         14.70846       98.81621      100.68339
O         12.94080       98.50560       99.06055
H         12.10222       99.80857      101.39320
H         14.15262      101.43551      100.20910
H         14.62364       99.58849       98.69794
H         12.38759       98.21221       99.82929
H         15.51203       99.51474      100.99864
H         14.06315       98.59727      101.55914
H         15.17817       97.86612      100.35157
N         11.58404      100.89549       98.05389
C         10.93949      101.41647       96.85179
C          9.47100      101.64877       97.18988
O          8.89051      100.75805       97.79621
C         11.09955      100.38045       95.69644
C         12.60722      100.13485       95.41037
C         10.37664      100.86922       94.42611
C         12.87687       99.06632       94.34897
H         11.19791      100.02767       98.45205
H         11.43111      102.34895       96.52042
H         10.63529       99.41937       96.01160
H         13.10298       99.78598       96.34053
H         13.09365      101.08479       95.09642
H         10.82179      101.82100       94.06545
H         10.42667      100.11905       93.61295
H          9.29903      101.02489       94.62931
H         12.41398       98.10232       94.64762
H         12.49416       99.37090       93.35446
H         13.97300       98.91827       94.24937
N          8.74145      102.74739       96.83379
C          9.14383      103.85628       95.97095
C          8.39254      103.73700       94.65098
O          9.03612      103.84079       93.61619
C          8.90128      105.20299       96.66791
C          9.78744      105.34718       97.87727
O         11.00283      105.31540       97.75618
O          9.24725      105.52377       99.09735
H          7.76087      102.75297       97.15301
H         10.21854      103.82877       95.70977
H          7.83321      105.29653       96.95960
H          9.14617      106.03086       95.96631
N          7.06731      103.38973       94.60495
C          6.38845      102.99209       93.36888
C          4.96389      102.50741       93.67610
O          4.84202      101.64187       94.53423
C          7.10760      101.77477       92.71737
C          6.52317      101.47184       91.36151
C          5.66409      100.37726       91.17614
C          6.83088      102.30097       90.26862
C          5.11172      100.12448       89.91690
C          6.28856      102.03574       89.00875
C          5.42594      100.95072       88.83382
H          6.53947      103.32744       95.48632
H          6.41717      103.83748       92.65671
H          7.01130      100.89967       93.39794
H          8.19367      101.91790       92.56403
H          5.40674       99.73429       92.00839
H          7.49575      103.14734       90.39321
H          4.43811       99.28883       89.78115
H          6.53501      102.67342       88.16957
H          5.00070      100.75096       87.85913
N          3.85319      102.89807       92.97448
C          3.82433      103.83903       91.86923
C          4.18568      105.23023       92.32246
O          5.11631      105.81535       91.78661
C          2.37536      103.76282       91.35058
C          2.00172      102.33472       91.69809
C          2.57712      102.22411       93.10449
H          4.50512      103.47018       91.07422
H          1.69788      104.40249       91.95758
H          2.25068      104.05032       90.28520
H          0.91861      102.09937       91.62569
H          2.56861      101.64924       91.02670
H          1.94759      102.78590       93.83000
H          2.65790      101.15696       93.40702
N          3.47807      105.81717       93.32749
C          3.78061      107.13529       93.85075
C          2.84289      108.13635       93.19489
O          1.64270      107.98983       93.38221
C          3.59642      107.14231       95.38372
C          4.55754      106.16884       96.08547
C          4.31582      106.14637       97.56732
O          3.96623      104.99597       98.17460
O          4.43947      107.16447       98.22949
H          2.67475      105.31371       93.73427
H          4.84082      107.36454       93.67241
H          2.54744      106.85846       95.62896
H          3.77727      108.17000       95.76870
H          5.60785      106.47554       95.89173
H          4.41236      105.14089       95.68823
N          3.24823      109.17093       92.39625
C          4.60839      109.50595       92.01208
H          5.38916      108.84265       92.40978
H          4.69021      109.47228       90.90560
H          4.83941      110.53579       92.35356
H          2.51549      109.78311       92.00514
Ca         9.38037      110.82364      103.94575
O         12.44844      110.72904      102.11932
H         11.92482      111.34494      101.54795
H         12.82950      111.30769      102.82698
O          7.75889      107.97684      104.10228
H          7.75045      107.03332      103.80355
H          6.80635      108.20288      104.24568
O          7.52514      111.40430      101.97842
H          7.11348      111.33654      102.87718
H          7.25851      110.56740      101.52300
O         10.03536      108.36082      101.83732
H          9.22751      107.81318      101.67091
H         10.77813      107.82845      101.45627

Ca 1.0



