%chk=apoCaM-CA-Ng.loop3.water2.frame644.chk
%nprocshared=20
%mem=10GB
%nosave
#b3lyp/svp scf=(tight,noincore,xqc) Test 
#IOP(5/87=12) Density=Current Pop=(MK,readradii) iop(6/33=2) iop(6/42=6)

apoCaM-CA-Ng.loop3.water2.frame644 

   0  1 
C        -26.19175       53.93430       -1.16849
C        -26.28968       54.25565       -2.63002
O        -27.38150       54.23493       -3.17879
H        -25.76143       54.80666       -0.63012
H        -27.19442       53.71913       -0.74186
H        -25.53384       53.05416       -1.01807
N        -25.17134       54.61268       -3.31797
C        -25.20598       55.05731       -4.70959
C        -25.51336       53.89226       -5.65143
O        -25.37189       52.75006       -5.23332
C        -23.85284       55.74954       -5.02440
C        -23.81845       56.68230       -6.20178
O        -22.68127       57.34764       -6.46889
O        -24.80870       56.91144       -6.86973
H        -24.28149       54.65191       -2.79524
H        -25.99621       55.81943       -4.78333
H        -23.05609       54.97938       -5.10975
H        -23.59404       56.40486       -4.16535
N        -25.91903       54.10110       -6.94081
C        -26.10315       53.02769       -7.91563
C        -25.06326       53.11228       -9.03339
O        -24.93282       52.14919       -9.77392
C        -27.52613       53.06840       -8.51832
C        -28.66686       52.98700       -7.48868
C        -28.68256       51.66664       -6.70856
C        -29.87909       51.60905       -5.74951
N        -29.86852       50.36586       -4.97931
H        -26.09927       55.05973       -7.25695
H        -25.93584       52.04470       -7.42686
H        -27.64653       52.24006       -9.25085
H        -27.64407       54.02760       -9.07060
H        -29.62766       53.08344       -8.04191
H        -28.59221       53.83944       -6.78095
H        -27.74965       51.57208       -6.11646
H        -28.74703       50.81582       -7.42187
H        -30.82617       51.67395       -6.33116
H        -29.83823       52.47249       -5.04838
H        -29.91655       49.54208       -5.62204
H        -28.99837       50.31168       -4.40118
H        -30.69789       50.34890       -4.34299
N        -24.29343       54.22741       -9.21896
C        -23.22161       54.34348      -10.20321
C        -21.89074       54.73523       -9.54039
O        -20.90153       54.86344      -10.24949
C        -23.65245       55.32251      -11.31453
C        -24.08058       56.66961      -10.80382
O        -23.21766       57.44988      -10.13732
O        -25.22026       57.06304      -10.99461
H        -24.47121       55.06293       -8.65286
H        -23.04442       53.36703      -10.70588
H        -24.51386       54.86555      -11.85133
H        -22.82839       55.44515      -12.04999
N        -21.77362       54.87316       -8.18578
C        -20.52103       55.08701       -7.47630
C        -19.86956       56.45647       -7.58935
O        -18.85919       56.62048       -6.91979
H        -22.59085       54.70089       -7.58765
H        -19.79488       54.30066       -7.77570
H        -20.72562       54.94674       -6.39147
N        -20.33856       57.47920       -8.36979
C        -19.67254       58.78772       -8.42748
C        -20.62091       59.94109       -8.11905
O        -21.82156       59.74060       -8.07439
C        -19.02789       58.97430       -9.82154
C        -20.03891       59.19130      -10.92871
N        -20.21536       58.27794      -11.90948
O        -20.69613       60.22124      -10.94667
H        -21.16001       57.32103       -8.96049
H        -18.85162       58.81963       -7.67951
H        -18.40675       58.07591      -10.03009
H        -18.34485       59.85107       -9.81573
H        -19.67877       57.39981      -11.92044
H        -20.90647       58.44831      -12.65601
N        -20.12914       61.20154       -7.95473
C        -20.93985       62.41258       -7.89727
C        -22.03184       62.41382       -6.84656
O        -21.74717       62.19371       -5.67804
H        -19.10530       61.32646       -7.93818
H        -21.39275       62.57827       -8.89782
H        -20.26386       63.27276       -7.69975
N        -23.31510       62.72762       -7.20929
C        -24.42897       62.84506       -6.26529
C        -25.08765       61.45970       -6.04593
O        -24.12541       60.45581       -6.02433
C        -25.49053       63.81218       -6.84485
C        -24.97276       65.21624       -7.06964
C        -24.76740       66.08854       -5.98596
C        -24.72633       65.67901       -8.37400
C        -24.33730       67.40344       -6.20788
C        -24.27962       66.98568       -8.59155
C        -24.09144       67.85515       -7.51334
O        -23.68205       69.11939       -7.74526
H        -23.49035       62.96963       -8.19672
H        -24.05272       63.24862       -5.29791
H        -26.38810       63.88792       -6.19647
H        -25.83031       63.38166       -7.81281
H        -24.96452       65.76049       -4.97301
H        -24.87413       65.02660       -9.22509
H        -24.20179       68.07262       -5.36700
H        -24.08833       67.32544       -9.60186
H        -23.55700       69.76178       -7.03224
N        -25.95317       61.45290       -4.84426
C        -26.36259       60.15683       -4.24110
C        -27.13550       59.27411       -5.21893
O        -26.63258       58.99409       -6.29446
C        -25.18121       59.39206       -3.55794
C        -25.65379       58.15955       -2.73854
C        -24.33829       60.33508       -2.68031
C        -26.54305       58.45091       -1.52709
H        -26.82103       61.99026       -5.07021
H        -27.04565       60.42626       -3.40945
H        -24.50842       58.97562       -4.33077
H        -24.75664       57.61446       -2.37194
H        -26.21353       57.47915       -3.40280
H        -24.95401       60.80264       -1.88476
H        -23.49934       59.77723       -2.21275
H        -23.89542       61.14824       -3.29278
H        -26.01654       59.08685       -0.78774
H        -27.49360       58.93445       -1.82383
H        -26.79680       57.49016       -1.03100
N        -28.34904       58.74867       -4.87444
C        -29.12175       57.86232       -5.74692
C        -30.55286       58.33434       -5.96427
O        -31.25834       57.67849       -6.72054
C        -29.15823       56.45265       -5.13904
O        -29.76337       56.48253       -3.87482
H        -28.71024       58.93504       -3.92768
H        -28.63895       57.78631       -6.74658
H        -28.12351       56.07923       -5.04919
H        -29.72273       55.76774       -5.81053
H        -29.72810       55.55335       -3.52945
N        -31.08056       59.41425       -5.31589
C        -32.48609       59.78661       -5.45112
C        -32.81697       60.22122       -6.86827
O        -31.89676       60.55324       -7.60330
C        -32.80963       60.92096       -4.48190
H        -30.49457       59.95568       -4.66623
H        -33.08954       58.89072       -5.18638
H        -32.16125       61.79980       -4.68090
H        -33.85246       61.24281       -4.60650
H        -32.64805       60.58050       -3.43597
N        -34.08356       60.19964       -7.38438
C        -35.29026       59.70779       -6.71570
C        -36.48812       60.58275       -7.07688
O        -36.63094       60.88645       -8.25377
C        -35.56406       58.29107       -7.22484
H        -34.16972       60.43355       -8.38664
H        -35.16338       59.61253       -5.62322
H        -34.70673       57.63073       -6.97184
H        -36.47502       57.87921       -6.73933
H        -35.70509       58.28181       -8.32694
N        -37.46149       60.96983       -6.19812
C        -37.54315       60.61440       -4.78563
C        -36.47136       61.32220       -3.99073
O        -35.75695       60.66453       -3.24731
C        -38.94222       60.97878       -4.23327
C        -39.15846       60.45041       -2.80499
C        -40.54987       60.74518       -2.32378
O        -41.38161       59.73425       -2.00612
O        -40.93180       61.89896       -2.21022
H        -38.24989       61.50636       -6.59629
H        -37.44952       59.50931       -4.68618
H        -39.70738       60.50115       -4.88551
H        -39.09823       62.08002       -4.26641
H        -38.43074       60.90963       -2.10296
H        -39.00509       59.34864       -2.80114
N        -36.30947       62.67186       -4.10494
C        -35.29456       63.42411       -3.39568
H        -34.61352       63.90154       -4.13229
H        -35.77922       64.21733       -2.79010
H        -34.68687       62.78576       -2.72105
H        -36.92044       63.19781       -4.74802
Ca       -24.51021       59.48375       -8.05713
O        -27.00639       60.88785       -8.96565
H        -27.37056       60.00184       -9.21670
H        -26.54942       61.20933       -9.78315
O        -23.89974       60.47083      -10.92742
H        -23.17967       59.95522      -10.48871
H        -23.71701       61.40791      -10.66743

Ca 1.0



