%chk=apoCaM-CA-Ng.loop3.water5.frame456.chk
%nprocshared=20
%mem=10GB
%nosave
#b3lyp/svp scf=(tight,noincore,xqc) Test 
#IOP(5/87=12) Density=Current Pop=(MK,readradii) iop(6/33=2) iop(6/42=6)

apoCaM-CA-Ng.loop3.water5.frame456 

   0  1 
C         79.78394       42.54981       80.74829
C         79.36410       41.16244       81.13330
O         78.94706       40.96180       82.26310
H         80.85697       42.54108       80.45918
H         79.17742       42.90525       79.89042
H         79.65564       43.25248       81.59984
N         79.47316       40.14390       80.22926
C         79.16029       38.73324       80.48102
C         80.14195       38.04335       81.43344
O         80.01046       36.84168       81.61889
C         77.70322       38.54486       80.96455
C         76.71116       39.15889       80.01843
O         75.88613       40.13348       80.44714
O         76.64036       38.77246       78.86280
H         79.80036       40.38253       79.28007
H         79.26800       38.19851       79.51013
H         77.57040       38.99056       81.97212
H         77.47661       37.46062       81.05431
N         81.14377       38.72246       82.06447
C         82.10365       38.11951       82.98990
C         81.87737       38.59727       84.42631
O         82.54115       38.10058       85.32611
C         83.54728       38.44506       82.51901
C         83.85050       39.96642       82.53576
C         85.26792       40.35305       82.10109
C         85.55291       40.03731       80.62471
N         86.84518       40.59050       80.22013
H         81.22282       39.72758       81.90661
H         81.97214       37.01519       83.00045
H         83.67611       38.04263       81.49203
H         84.27223       37.92806       83.18489
H         83.70765       40.34396       83.57057
H         83.16099       40.52235       81.87138
H         86.02040       39.86413       82.75587
H         85.35192       41.45433       82.23663
H         84.75867       40.48654       79.98684
H         85.55415       38.93805       80.46324
H         86.83278       41.63237       80.31952
H         87.61133       40.19066       80.80857
H         87.02259       40.35376       79.21747
N         80.97290       39.57678       84.70789
C         80.70808       40.11353       86.03533
C         80.03020       39.07647       86.91663
O         79.24351       38.28187       86.42162
C         79.81002       41.35541       85.87471
C         79.50892       42.06125       87.15909
O         80.47804       42.62649       87.89579
O         78.35541       42.17811       87.52153
H         80.45785       40.00410       83.93299
H         81.66540       40.45184       86.49259
H         78.85602       41.05105       85.38757
H         80.31848       42.08487       85.20565
N         80.26234       39.07168       88.25731
C         79.65825       38.13626       89.19179
C         78.14249       38.17696       89.20700
O         77.55604       37.10610       89.28383
H         80.91565       39.76815       88.64530
H         80.02838       38.36346       90.21379
H         79.99123       37.10154       88.94941
N         77.43390       39.34846       89.13740
C         75.96732       39.37308       89.12096
C         75.42143       39.90635       87.79641
O         74.46067       40.65958       87.80003
C         75.39848       40.13854       90.34414
C         75.64615       41.63334       90.35361
N         75.07919       42.39818       91.31166
O         76.32708       42.16646       89.49188
H         77.94933       40.23452       89.05951
H         75.58286       38.33448       89.20291
H         75.80423       39.69942       91.28136
H         74.29688       39.99084       90.35033
H         74.48417       41.97797       92.04009
H         75.22147       43.41755       91.31012
N         75.96956       39.51610       86.61320
C         75.48041       39.90225       85.29279
C         75.61236       41.37253       84.89667
O         75.36093       41.65534       83.73483
H         76.75886       38.85629       86.64128
H         74.42085       39.58465       85.17785
H         76.07952       39.33416       84.54842
N         75.96086       42.36501       85.76619
C         76.07432       43.76938       85.36746
C         75.94472       44.67079       86.58131
O         76.62364       44.46467       87.57642
C         77.39566       44.05381       84.62156
C         77.49496       45.52443       84.25987
C         76.54615       46.11919       83.40865
C         78.51684       46.32249       84.80306
C         76.60964       47.48581       83.12108
C         78.57798       47.68981       84.51433
C         77.62032       48.27670       83.67511
O         77.65667       49.59641       83.39994
H         76.08344       42.13445       86.75488
H         75.22774       44.01396       84.69046
H         77.45920       43.43977       83.69826
H         78.24378       43.77049       85.27822
H         75.74744       45.52988       82.97777
H         79.25860       45.89107       85.46218
H         75.86472       47.93290       82.47489
H         79.36417       48.29351       84.95033
H         78.32747       50.18345       83.77710
N         75.07188       45.71623       86.54453
C         74.74718       46.50945       87.71859
C         73.95355       45.59660       88.62922
O         74.31767       45.43219       89.78511
C         73.94259       47.79007       87.33438
C         74.68986       48.67960       86.29733
C         73.59480       48.63071       88.58095
C         76.05164       49.21870       86.75531
H         74.56745       45.90753       85.66706
H         75.67735       46.85230       88.22104
H         72.98545       47.47688       86.86110
H         74.04267       49.54637       86.04076
H         74.84839       48.11282       85.35807
H         72.99417       49.51800       88.28695
H         73.00163       48.05624       89.31097
H         74.50592       48.97020       89.11262
H         75.95579       49.85585       87.65690
H         76.76325       48.39269       86.95862
H         76.48434       49.84839       85.95102
N         72.89067       44.89591       88.12713
C         72.15588       43.91277       88.91136
C         71.34900       44.56000       90.01935
O         70.87667       43.84548       90.89070
C         71.20591       43.08826       88.01602
O         71.86070       42.53602       86.90258
H         72.64711       45.01698       87.13145
H         72.90561       43.21882       89.35719
H         70.40855       43.75880       87.63170
H         70.72736       42.27531       88.60510
H         72.74608       42.21199       87.19871
N         71.15050       45.91195       90.04600
C         70.46174       46.62441       91.10736
C         71.15587       46.34695       92.42364
O         70.52058       45.89272       93.36699
C         68.96632       46.27946       91.11275
H         71.52066       46.48932       89.28435
H         70.54162       47.71551       90.89799
H         68.52696       46.51205       90.11884
H         68.79531       45.20574       91.33177
H         68.43995       46.88793       91.87797
N         72.49707       46.56379       92.53050
C         73.26559       46.25828       93.72564
C         73.91694       47.51642       94.23262
O         74.70296       48.12102       93.51422
C         74.31239       45.19351       93.41326
H         73.00472       46.94178       91.71387
H         72.60741       45.84043       94.51809
H         74.89479       44.94784       94.32674
H         73.80028       44.27312       93.06318
H         75.00894       45.54488       92.62331
N         73.59763       47.98799       95.46856
C         74.10058       49.23136       96.02957
C         73.69421       50.38122       95.12244
O         74.53891       51.15451       94.69114
C         75.63052       49.16801       96.28088
C         76.11430       47.91135       97.03328
C         75.52537       47.74192       98.40647
O         74.32859       47.55221       98.55129
O         76.33042       47.74077       99.48577
H         72.91881       47.46106       96.03962
H         73.59895       49.38775       97.00876
H         75.94102       50.07918       96.83845
H         76.16599       49.17389       95.30750
H         77.21977       47.98457       97.12851
H         75.89209       47.00299       96.43284
N         72.38843       50.50496       94.75030
C         71.90901       51.50746       93.82154
H         71.11825       52.11402       94.30797
H         72.71641       52.18476       93.47333
H         71.47636       50.99904       92.93313
H         71.69769       49.83006       95.11242
Ca        79.69576       43.84468       89.62843
O         81.33714       44.78310       91.79471
H         81.09776       43.90682       92.18910
H         81.93660       44.55773       91.03897
O         78.07441       42.99282       92.38756
H         77.25304       43.27180       92.86418
H         78.77846       43.00255       93.08294
O         79.95024       41.15919       90.73954
H         79.61428       40.74702       91.57383
H         80.93603       41.09852       90.80779
O         77.14800       45.36905       90.79194
H         77.43037       45.74713       91.66211
H         76.89402       46.15776       90.25169
O         79.11880       46.43368       88.14947
H         80.02220       46.65177       87.80774
H         78.97799       47.06434       88.89916

Ca 1.0



