%chk=apoCaM-CA-Ng.loop3.water6.frame53.chk
%nprocshared=20
%mem=10GB
%nosave
#b3lyp/svp scf=(tight,noincore,xqc) Test 
#IOP(5/87=12) Density=Current Pop=(MK,readradii) iop(6/33=2) iop(6/42=6)

apoCaM-CA-Ng.loop3.water6.frame53 

   0  1 
C         44.77754       44.58320       47.01159
C         44.29023       43.85922       45.78925
O         43.50397       42.93644       45.93335
H         45.49254       45.39109       46.74996
H         43.91701       45.02786       47.55343
H         45.29526       43.86755       47.68415
N         44.72013       44.22363       44.54596
C         44.34636       43.54338       43.30524
C         44.91964       42.13063       43.31969
O         44.19676       41.14938       43.21293
C         42.82015       43.60088       43.05643
C         42.26889       45.00662       43.03147
O         43.06353       46.07936       43.22149
O         41.07625       45.17770       42.83911
H         45.37024       45.02093       44.46632
H         44.83505       44.07574       42.45775
H         42.27723       43.02956       43.83613
H         42.60332       43.12656       42.07534
N         46.26524       41.99336       43.48536
C         47.01798       40.73665       43.61349
C         46.73054       39.94466       44.90055
O         47.42187       38.96642       45.14820
C         48.53619       41.05567       43.51299
C         49.09179       41.96597       44.63364
C         50.51959       42.41911       44.29815
C         51.02416       43.46693       45.30054
N         52.34382       43.96604       44.91411
H         46.79179       42.87724       43.48670
H         46.78458       40.08617       42.74215
H         48.68709       41.56279       42.53421
H         49.12602       40.11277       43.48874
H         49.06341       41.44245       45.61393
H         48.48256       42.88434       44.72732
H         50.51191       42.89286       43.29149
H         51.20389       41.54327       44.27368
H         51.07194       43.02537       46.31993
H         50.31380       44.32447       45.32237
H         53.03961       43.18589       44.91448
H         52.29925       44.39841       43.96198
H         52.64742       44.69717       45.59712
N         45.72280       40.28400       45.74955
C         45.44029       39.65295       47.03226
C         44.21741       38.76532       46.86472
O         43.26465       39.19067       46.23128
C         45.23983       40.81997       48.03450
C         45.15697       40.54001       49.53267
O         46.27144       39.85906       50.03001
O         44.01165       39.85283       49.92281
H         45.09594       41.05005       45.49959
H         46.29996       39.03528       47.37158
H         44.33820       41.40133       47.75118
H         46.11904       41.49057       47.92803
N         44.19654       37.48995       47.35048
C         43.08227       36.56497       47.15791
C         41.77425       36.96006       47.82873
O         40.82065       36.20759       47.67852
H         45.02613       37.13557       47.84776
H         43.36943       35.57126       47.56448
H         42.90087       36.44265       46.06693
N         41.62581       38.11125       48.54730
C         40.35906       38.54878       49.12352
C         39.79143       39.73213       48.35201
O         38.63308       40.05699       48.56646
C         40.54161       38.94007       50.60503
C         41.08972       37.81807       51.44772
N         40.39670       36.66849       51.61067
O         42.16733       37.95738       52.00564
H         42.42410       38.73758       48.65218
H         39.60625       37.73494       49.03876
H         39.57060       39.26499       51.03720
H         41.24161       39.80517       50.65613
H         39.47943       36.53735       51.16149
H         40.77607       35.91058       52.19753
N         40.53786       40.42314       47.43696
C         40.02232       41.50447       46.62520
C         39.50279       42.59910       47.49512
O         38.31312       42.87998       47.42565
H         41.52009       40.19617       47.29967
H         39.21531       41.11074       45.97071
H         40.82954       41.90785       45.97422
N         40.33080       43.25046       48.36082
C         39.83575       44.25716       49.28670
C         40.13993       43.84175       50.71338
O         40.85411       42.86515       50.90766
C         40.42976       45.63439       48.90936
C         39.41646       46.74697       49.01567
C         38.26082       46.68828       48.21287
C         39.61236       47.85451       49.85294
C         37.31583       47.71100       48.24919
C         38.66114       48.88371       49.88631
C         37.51069       48.81355       49.08245
O         36.59079       49.79870       49.09528
H         41.33782       43.01766       48.36769
H         38.73013       44.29533       49.20049
H         40.70423       45.62729       47.83068
H         41.37261       45.82087       49.47011
H         38.09630       45.84957       47.54651
H         40.49857       47.92677       50.46984
H         36.43577       47.64721       47.62085
H         38.82078       49.73805       50.53087
H         36.68727       50.58773       49.64602
N         39.57115       44.48644       51.76672
C         39.76057       44.05329       53.14893
C         38.50036       43.30393       53.55709
O         38.57812       42.12071       53.85480
C         40.13496       45.25893       54.06264
C         41.36141       46.00991       53.46857
C         40.41815       44.76638       55.49485
C         41.82801       47.21722       54.28558
H         38.91144       45.25697       51.57428
H         40.60386       43.32744       53.21254
H         39.28062       45.97066       54.09892
H         41.08936       46.39336       52.46145
H         42.21850       45.31192       53.35113
H         40.62097       45.61682       56.17719
H         39.53861       44.22998       55.90715
H         41.29398       44.08209       55.50508
H         42.22662       46.90398       55.27186
H         42.65267       47.72858       53.74401
H         40.99721       47.93943       54.42913
N         37.28802       43.91649       53.48553
C         36.01169       43.21901       53.63038
C         35.80398       42.61484       55.00381
O         35.40032       41.46299       55.08455
C         34.85310       44.18308       53.33304
O         34.98407       44.68556       52.03024
H         37.27038       44.91490       53.22848
H         35.94974       42.40880       52.86773
H         34.86869       45.01607       54.07288
H         33.88764       43.63462       53.41133
H         34.39152       45.47903       51.97422
N         36.02564       43.35141       56.12712
C         35.68679       42.93010       57.48236
C         36.17991       41.52675       57.82574
O         35.39935       40.72371       58.32180
C         34.16823       43.06725       57.67992
H         36.43271       44.29319       56.01922
H         36.17012       43.64654       58.18247
H         33.62033       42.37641       57.00305
H         33.88665       42.84243       58.73037
H         33.85017       44.10681       57.44999
N         37.45967       41.14744       57.55583
C         37.95439       39.80134       57.83074
C         39.39322       39.86026       58.29290
O         40.21939       40.40857       57.57696
C         37.83493       38.93275       56.57922
H         38.06990       41.80780       57.04983
H         37.33084       39.30699       58.60977
H         38.18997       37.90271       56.80340
H         36.76860       38.86750       56.27204
H         38.42834       39.35077       55.74037
N         39.75598       39.32836       59.49624
C         41.10571       39.35342       60.05451
C         41.63866       40.77440       60.10429
O         42.72900       41.04250       59.61945
C         42.05667       38.30542       59.40278
C         42.38238       38.47345       57.90844
C         43.34494       37.41373       57.45227
O         43.02283       36.62959       56.57404
O         44.57228       37.32971       58.00102
H         39.01803       38.92021       60.09054
H         41.02031       39.02060       61.11372
H         41.60386       37.29848       59.54161
H         43.01150       38.32418       59.97400
H         42.84520       39.46219       57.71467
H         41.45711       38.37586       57.30723
N         40.88496       41.74726       60.68870
C         41.28865       43.13557       60.76905
H         42.28910       43.31351       60.32219
H         40.54785       43.76181       60.22881
H         41.31673       43.44790       61.83337
H         39.96638       41.49832       61.08625
Ca        45.06810       38.54235       51.43283
O         44.39135       36.73657       53.78675
H         44.94790       36.72460       54.60529
H         44.28152       35.78298       53.54514
O         46.35442       41.01548       53.29719
H         46.93903       41.17003       54.08127
H         46.85475       41.39932       52.53394
O         43.28446       41.42375       52.29944
H         43.31353       42.21024       51.69913
H         43.44175       41.79777       53.20177
O         47.40733       37.70483       52.87932
H         47.65401       36.82456       53.25848
H         48.26744       38.17903       52.75676
O         44.75252       35.94723       50.28763
H         45.57890       35.86220       50.82706
H         44.01708       35.78399       50.92990
O         43.77411       39.61736       54.90543
H         44.63078       39.87761       55.32813
H         43.11941       40.27832       55.24456

Ca 1.0



