%chk=apoCaM-CA-Ng.loop1.water3.frame1371.chk
%nprocshared=20
%mem=10GB
%nosave
#b3lyp/svp scf=(tight,noincore,xqc) Test 
#IOP(5/87=12) Density=Current Pop=(MK,readradii) iop(6/33=2) iop(6/42=6)

apoCaM-CA-Ng.loop1.water3.frame1371 

   0  1 
C         -1.51747       76.72556       77.40145
C         -2.00823       75.32181       77.57628
O         -1.22905       74.39860       77.38282
H         -0.45021       76.72977       77.08827
H         -2.11690       77.23549       76.61857
H         -1.61100       77.27436       78.36037
N         -3.30913       75.08275       77.92018
C         -3.85084       73.73467       78.06421
C         -4.83923       73.46556       76.94293
O         -5.94210       72.98716       77.17056
C         -4.47183       73.54733       79.46474
C         -3.50344       73.74800       80.60343
O         -2.32652       74.00620       80.40443
O         -3.94854       73.63907       81.86917
H         -3.94677       75.88413       78.04365
H         -3.04542       72.99091       77.93339
H         -4.88548       72.51938       79.54981
H         -5.30388       74.27510       79.58384
N         -4.47556       73.78601       75.67517
C         -5.29990       73.58100       74.49386
C         -5.33625       72.12043       74.05005
O         -6.44004       71.64028       73.83548
C         -4.86692       74.53084       73.35675
C         -5.05273       75.99267       73.81749
C         -4.75409       77.01613       72.72365
C         -4.96591       78.43566       73.27609
N         -4.70809       79.44774       72.25526
H         -3.57582       74.27339       75.55414
H         -6.34559       73.89319       74.72248
H         -5.52371       74.35316       72.47638
H         -3.81423       74.34520       73.05341
H         -4.39044       76.20197       74.68450
H         -6.10780       76.13580       74.14266
H         -5.43751       76.84580       71.86315
H         -3.70312       76.90132       72.38124
H         -4.28186       78.60327       74.13860
H         -6.01336       78.54398       73.63871
H         -3.72236       79.37139       71.91523
H         -5.37228       79.32696       71.45666
H         -4.85071       80.39538       72.67422
N         -4.24534       71.30136       73.91170
C         -2.86549       71.62270       74.26870
C         -2.53410       70.94012       75.59249
O         -3.35529       70.18572       76.09734
C         -1.90011       71.29383       73.11580
C         -1.96758       69.85890       72.69188
O         -1.62113       68.88535       73.54925
O         -2.33652       69.57181       71.56460
H         -4.43432       70.32178       73.64363
H         -2.74334       72.69731       74.43476
H         -0.85533       71.53775       73.40609
H         -2.16907       71.93676       72.24845
N         -1.40548       71.25902       76.28337
C         -1.20404       70.81828       77.65739
C         -0.80848       69.37297       77.81147
O         -0.54845       68.68734       76.83547
H         -0.75484       71.95499       75.88895
H         -2.13241       71.00010       78.23781
H         -0.39568       71.42278       78.12203
N         -0.73283       68.86137       79.07268
C         -0.19358       67.54613       79.41058
C          0.87197       67.71929       80.49915
O          0.93826       68.79266       81.08290
C         -1.33651       66.64879       79.93075
C         -2.37114       66.39909       78.87187
O         -2.06533       65.83305       77.83416
O         -3.64686       66.77770       79.07431
H         -1.06090       69.45742       79.84958
H          0.26758       67.08467       78.51210
H         -1.81543       67.13308       80.81059
H         -0.96041       65.66371       80.25864
N          1.74934       66.74398       80.87603
C          1.93817       65.46013       80.22876
C          2.52823       65.62153       78.84993
O          3.31680       66.53191       78.63565
H          2.37954       66.95091       81.66749
H          1.02359       64.83824       80.23197
H          2.69147       64.89069       80.81509
N          2.26490       64.70003       77.88700
C          2.86519       64.74484       76.55757
C          2.38543       65.96675       75.78188
O          1.19302       66.22820       75.75098
C          2.60491       63.41827       75.80544
C          3.25516       63.41489       74.41339
O          1.23068       63.16596       75.70687
H          1.64651       63.90991       78.13003
H          3.97136       64.79490       76.66871
H          3.07765       62.61156       76.41483
H          1.12942       62.19628       75.51653
H          4.34627       63.60615       74.50075
H          3.11047       62.42746       73.92802
H          2.80833       64.19406       73.76032
N          3.29568       66.73523       75.10793
C          3.01310       67.93822       74.32295
C          2.06814       67.66085       73.16725
O          0.90573       67.34870       73.38872
C          2.52869       69.11775       75.21297
C          3.61705       69.43481       76.27042
C          2.21188       70.36190       74.35065
C          3.22480       70.52318       77.26786
H          4.28347       66.44232       75.13972
H          3.98112       68.26837       73.88222
H          1.59954       68.81723       75.72861
H          4.55842       69.73740       75.76037
H          3.82646       68.51865       76.86077
H          1.41399       70.14129       73.61121
H          1.82426       71.19604       74.96771
H          3.11696       70.70161       73.80317
H          3.08042       71.50122       76.76715
H          2.29735       70.23561       77.80594
H          4.04444       70.64700       78.00670
N          2.50856       67.81710       71.88697
C          1.65584       67.67233       70.71914
C          2.05928       66.49303       69.85502
O          1.37290       66.26790       68.87365
C          1.60903       68.99492       69.90890
C          2.96753       69.41502       69.33732
O          1.12857       70.03248       70.72292
H          3.49756       68.06454       71.73386
H          0.61166       67.45736       71.03390
H          0.92511       68.86407       69.03614
H          0.14210       69.93675       70.75431
H          3.69808       69.62360       70.14501
H          3.37422       68.62691       68.66985
H          2.84658       70.34649       68.74457
N          3.12209       65.67628       70.15959
C          3.40536       64.45915       69.39637
C          2.22975       63.51535       69.57947
O          2.10036       62.90192       70.62938
C          4.74692       63.79879       69.81295
C          5.95067       64.68494       69.44757
O          4.75612       63.45682       71.18100
H          3.71504       65.90338       70.96493
H          3.49566       64.73585       68.32207
H          4.86897       62.85801       69.23324
H          5.03224       64.24995       71.71073
H          5.90241       65.66618       69.96531
H          6.89473       64.17687       69.73629
H          5.97023       64.86468       68.35136
N          1.22664       63.53409       68.65364
C         -0.10958       62.97317       68.83143
C         -0.80008       63.55571       70.05876
O         -0.14893       64.17088       70.88845
C         -0.12143       61.43746       68.88812
C          0.64528       60.81407       67.71723
C          0.51620       59.28597       67.73558
C          1.47908       58.59364       66.75774
N          1.26283       58.98828       65.36556
H          1.37055       64.08201       67.79207
H         -0.69784       63.28549       67.93808
H         -1.18028       61.09520       68.86782
H          0.33813       61.08748       69.83781
H          1.71618       61.09480       67.81683
H          0.25414       61.20869       66.75446
H         -0.53648       59.00245       67.51216
H          0.76736       58.91176       68.75190
H          1.33626       57.49451       66.85168
H          2.52680       58.82836       67.04991
H          0.28034       58.77845       65.07703
H          1.46954       60.00389       65.23322
H          1.91946       58.44524       64.75941
N         -2.14403       63.43130       70.21673
C         -2.87326       63.91717       71.39145
C         -2.49337       65.38229       71.74490
O         -3.35740       66.00089       72.65564
C         -4.40193       63.73563       71.21156
C         -4.81620       62.26203       71.04719
C         -6.29979       62.14504       70.85130
O         -6.83523       62.66949       69.88711
O         -7.04486       61.44465       71.72682
H         -2.66644       62.99289       69.44518
H         -2.57393       63.31630       72.27896
H         -4.74818       64.31881       70.33520
H         -4.92449       64.12449       72.11342
H         -4.51245       61.69302       71.95274
H         -4.32835       61.79765       70.16756
N         -2.08594       66.27059       70.64951
C         -3.13861       66.55223       69.68257
H         -4.03832       66.96790       70.18230
H         -2.75672       67.29329       68.94882
H         -3.38538       65.63526       69.11227
H         -1.75774       67.16635       71.07368
Ca        -2.08963       66.33659       74.52396
O         -3.24546       63.82003       75.45615
H         -2.67118       63.08281       75.12931
H         -3.33889       63.65352       76.42749
O          0.04888       64.46844       73.57614
H          0.13294       63.51260       73.33429
H         -0.43447       64.45435       74.43766
O         -4.56183       67.16848       76.04183
H         -4.82480       67.64958       76.86521
H         -3.95414       67.79585       75.57811

Ca 1.0



