%chk=apoCaM-CA-Ng.loop1.water3.frame1244.chk
%nprocshared=20
%mem=10GB
%nosave
#b3lyp/svp scf=(tight,noincore,xqc) Test 
#IOP(5/87=12) Density=Current Pop=(MK,readradii) iop(6/33=2) iop(6/42=6)

apoCaM-CA-Ng.loop1.water3.frame1244 

   0  1 
C         54.78147       19.94730       43.16763
C         53.69965       19.78310       42.14088
O         54.00785       19.70916       40.95964
H         55.77912       20.02670       42.68429
H         54.60324       20.86906       43.76155
H         54.77995       19.06928       43.84576
N         52.39225       19.74252       42.53208
C         51.26981       19.61644       41.60277
C         50.75313       20.99371       41.19841
O         49.58336       21.29882       41.37487
C         50.16259       18.69803       42.18539
C         49.44557       19.26139       43.39561
O         48.24690       19.48695       43.33861
O         50.10015       19.50009       44.54746
H         52.20309       19.85078       43.53619
H         51.62828       19.12379       40.67130
H         50.59887       17.71224       42.45205
H         49.40941       18.52826       41.38410
N         51.61188       21.88897       40.64187
C         51.23206       23.24212       40.25596
C         50.22255       23.22362       39.11825
O         49.16648       23.81841       39.30087
C         52.47731       24.11280       39.95320
C         53.38272       24.17668       41.20198
C         54.60577       25.07309       41.01823
C         55.46632       25.03250       42.29214
N         56.64154       25.89027       42.16810
H         52.58687       21.60344       40.50920
H         50.75318       23.73479       41.13280
H         52.13705       25.14262       39.70523
H         53.05684       23.72873       39.09011
H         53.74937       23.16124       41.45704
H         52.78950       24.55772       42.06257
H         54.27387       26.11493       40.81823
H         55.20768       24.71178       40.15605
H         55.79730       23.98582       42.48186
H         54.86055       25.36727       43.16413
H         57.20241       25.82502       43.04846
H         57.23255       25.57587       41.36488
H         56.34511       26.88300       42.02730
N         50.38064       22.54638       37.94239
C         51.52975       21.71927       37.56572
C         51.12598       20.25052       37.58378
O         49.99282       19.93252       37.90416
C         52.08749       22.19119       36.20846
C         51.07408       22.01654       35.12811
O         50.67120       20.78465       34.76828
O         50.55836       22.99597       34.61348
H         49.58981       22.57090       37.27987
H         52.35038       21.81937       38.28700
H         53.01004       21.64180       35.92589
H         52.35205       23.26812       36.30282
N         52.05189       19.29093       37.29670
C         51.79446       17.86841       37.43446
C         50.74780       17.30147       36.49879
O         50.15134       18.02494       35.70963
H         53.00576       19.57981       37.04343
H         51.48950       17.65597       38.48217
H         52.74492       17.32695       37.24502
N         50.51374       15.96100       36.53716
C         49.53707       15.22443       35.72982
C         49.81995       13.72104       35.82819
O         50.13293       13.25668       36.91961
C         48.08182       15.46072       36.20075
C         47.57873       16.85386       35.97121
O         47.15394       17.59550       37.01081
O         47.51803       17.30737       34.83857
H         51.11989       15.42089       37.17747
H         49.62667       15.54303       34.67485
H         47.99545       15.19773       37.27730
H         47.40212       14.78807       35.63281
N         49.66366       12.85250       34.78685
C         49.12920       13.21436       33.48518
C         50.05108       14.06666       32.64929
O         51.19296       14.30490       33.01234
H         49.83511       11.84982       34.95886
H         48.16189       13.73726       33.63649
H         48.91913       12.29176       32.90183
N         49.56062       14.58054       31.48764
C         50.31283       15.43197       30.57291
C         50.85903       16.66640       31.27332
O         50.16411       17.25573       32.08844
C         49.41502       15.83455       29.37296
C         50.17319       16.64983       28.32025
O         48.30820       16.58115       29.81222
H         48.58305       14.35174       31.25229
H         51.16375       14.84124       30.16689
H         49.07265       14.90292       28.86142
H         47.54629       15.95591       29.92690
H         49.50178       16.87390       27.46482
H         50.52756       17.61519       28.74000
H         51.04582       16.07453       27.94477
N         52.10416       17.12292       30.94390
C         52.76927       18.30026       31.49614
C         51.98210       19.57472       31.20640
O         50.90370       19.75411       31.75073
C         53.10123       18.11902       33.01071
C         53.97851       16.84932       33.19500
C         53.82428       19.36947       33.55668
C         54.30747       16.51240       34.64895
H         52.63140       16.60110       30.22675
H         53.74821       18.38993       30.97289
H         52.15628       17.99179       33.58216
H         54.93051       16.96505       32.63162
H         53.44027       15.97031       32.78191
H         54.78389       19.53230       33.02059
H         53.19497       20.27464       33.43771
H         54.02708       19.27907       34.64185
H         54.90203       15.57492       34.68139
H         54.91543       17.30585       35.12807
H         53.37189       16.35367       35.22065
N         52.50938       20.53543       30.39078
C         51.88029       21.83179       30.15852
C         51.61059       22.05923       28.67812
O         52.10179       23.02211       28.10613
C         52.73575       22.95552       30.80931
C         54.17955       23.04325       30.29443
O         52.78799       22.75246       32.19576
H         53.42312       20.36023       29.94863
H         50.88530       21.88072       30.65433
H         52.25188       23.94021       30.60100
H         51.93234       23.09308       32.55992
H         54.69659       23.88391       30.80287
H         54.74119       22.11420       30.52063
H         54.22619       23.23224       29.20498
N         50.75559       21.23859       28.00933
C         50.35075       21.46546       26.62601
C         48.88955       21.86809       26.68463
O         48.01444       21.05971       26.41122
C         50.64240       20.20712       25.77470
C         50.46308       20.50557       24.27970
O         51.97133       19.80491       25.99007
H         50.31535       20.45740       28.52164
H         50.92519       22.30243       26.16935
H         49.95146       19.39177       26.09633
H         52.01119       18.82902       25.80760
H         51.17856       21.29791       23.96412
H         50.67575       19.59478       23.68140
H         49.43253       20.84854       24.05559
N         48.57837       23.10880       27.16508
C         47.26062       23.55163       27.61267
C         46.92402       22.89882       28.92848
O         47.20555       21.72279       29.11110
C         46.08375       23.32883       26.65598
C         46.22684       23.98122       25.28439
C         44.89296       23.81615       24.54289
C         44.93592       24.37249       23.12151
N         43.62693       24.22698       22.48329
H         49.35529       23.76796       27.33071
H         47.32851       24.64813       27.79987
H         45.19070       23.77204       27.15554
H         45.88220       22.24475       26.52831
H         47.05337       23.49002       24.72706
H         46.45383       25.06458       25.39486
H         44.09907       24.34881       25.11430
H         44.62734       22.73695       24.49289
H         45.69978       23.81585       22.53497
H         45.21657       25.44843       23.14542
H         43.67924       24.58151       21.50196
H         43.34184       23.22029       22.46650
H         42.91064       24.78209       23.00679
N         46.28422       23.61084       29.89530
C         45.98241       23.04324       31.19773
C         47.29558       22.63606       31.89247
O         47.09460       22.30790       33.23014
C         45.12169       23.99445       32.06754
C         43.73436       24.23543       31.46040
C         42.90468       25.08993       32.37505
O         42.48020       26.16820       31.99274
O         42.61953       24.66638       33.62206
H         46.01960       24.58802       29.69942
H         45.38211       22.11476       31.07261
H         45.62103       24.96776       32.23095
H         44.96692       23.51810       33.06063
H         43.21323       23.26405       31.31754
H         43.83255       24.73135       30.47159
N         48.46894       23.50994       31.69053
C         48.30958       24.89127       32.13807
H         47.95193       24.93611       33.18806
H         49.29045       25.40940       32.07236
H         47.62985       25.43754       31.45457
H         49.28199       23.08667       32.19298
Ca        48.75926       20.86734       33.66158
O         46.52458       20.40111       35.54831
H         45.61976       20.10275       35.81623
H         47.10098       20.19102       36.32524
O         48.28038       19.22074       30.70211
H         48.19814       20.15075       31.02569
H         48.11612       19.27911       29.72798
O         45.90166       19.10034       32.64971
H         45.66398       19.63982       31.85431
H         45.11439       19.17677       33.24494

Ca 1.0



