%chk=apoCaM-CA-Ng.loop2.water2.frame953.chk
%nprocshared=20
%mem=10GB
%nosave
#b3lyp/svp scf=(tight,noincore,xqc) Test 
#IOP(5/87=12) Density=Current Pop=(MK,readradii) iop(6/33=2) iop(6/42=6)

apoCaM-CA-Ng.loop2.water2.frame953 

   -2  1 
C         74.51924       86.82629       34.95924
C         73.55365       85.85819       35.57938
O         72.95011       85.08188       34.85212
H         75.31467       86.26363       34.42610
H         73.98577       87.47565       34.23434
H         74.99954       87.46977       35.72610
N         73.35849       85.83827       36.93016
C         72.43439       84.91467       37.58659
C         72.88545       83.44998       37.48680
O         72.13424       82.58655       37.91876
C         72.26044       85.32556       39.06676
C         71.18054       84.54624       39.76712
O         70.02778       84.59625       39.36743
O         71.47992       83.79420       40.84309
H         73.86152       86.53165       37.50582
H         71.44481       85.02696       37.08754
H         71.97787       86.39992       39.11699
H         73.22787       85.19516       39.59913
N         74.06988       83.08644       36.90779
C         74.48862       81.70170       36.72511
C         75.98745       81.56578       36.99663
O         76.73257       82.29767       36.35819
C         74.21391       81.30723       35.27247
H         74.68152       83.80722       36.50507
H         73.86273       81.02215       37.32708
H         74.76873       81.96158       34.56673
H         74.51051       80.25007       35.10255
H         73.12690       81.40308       35.05967
N         76.56530       80.65709       37.84156
C         75.89049       79.67228       38.68459
C         76.39653       79.75909       40.11948
O         77.30011       80.53961       40.38920
C         76.04428       78.26128       38.07655
C         77.46378       77.79363       37.90483
O         78.23455       78.38882       37.16930
O         77.86840       76.66433       38.50889
H         77.59731       80.64785       37.85851
H         74.80876       79.87284       38.73732
H         75.56258       78.25653       37.07467
H         75.49897       77.53122       38.71177
N         75.79680       79.03675       41.11292
C         76.12055       79.22539       42.51940
C         76.28376       77.93965       43.30770
O         75.46671       77.72015       44.19081
H         74.99391       78.43401       40.87872
H         75.26289       79.77545       42.96502
H         77.01813       79.86195       42.67069
N         77.32213       77.06658       43.16332
C         78.37679       77.14937       42.16727
C         79.62105       77.75615       42.80137
O         80.20479       77.15573       43.69320
C         78.61024       75.71866       41.62626
C         79.66012       75.56826       40.56656
N         79.91951       74.33967       40.06375
O         80.27219       76.53710       40.15248
H         77.37989       76.29164       43.84472
H         78.05410       77.79890       41.32977
H         77.65247       75.34110       41.20581
H         78.90013       75.05784       42.47297
H         79.40648       73.51329       40.40327
H         80.63036       74.20497       39.33612
N         80.03386       79.00090       42.41973
C         81.12462       79.72821       43.05172
C         82.51599       79.35470       42.57193
O         83.45754       79.96159       43.06059
H         79.46584       79.51535       41.73154
H         81.04383       79.63410       44.15707
H         81.00333       80.80617       42.80863
N         82.73765       78.40201       41.62033
C         84.06938       78.04536       41.12112
C         84.14529       78.22765       39.60338
O         83.15689       78.61367       38.99928
C         84.40756       76.59370       41.54313
C         84.45287       76.44481       43.07500
O         83.51458       75.67021       40.96749
H         81.93548       77.89578       41.23348
H         84.84468       78.70807       41.56440
H         85.42689       76.34093       41.18364
H         82.66673       75.69337       41.48293
H         84.74084       75.40791       43.34720
H         85.20303       77.14281       43.50551
H         83.46381       76.66654       43.53005
N         85.30446       77.96763       38.92147
C         85.44408       78.11267       37.46934
C         85.71937       76.73835       36.87590
O         86.72214       76.13116       37.22299
C         86.59234       79.10909       37.13128
C         86.84616       79.25481       35.60380
C         86.35200       80.48277       37.78271
C         85.69222       79.86759       34.80321
H         86.12751       77.64287       39.44949
H         84.50197       78.50785       37.03559
H         87.53186       78.70333       37.56970
H         87.07995       78.25795       35.17261
H         87.74453       79.89187       35.45103
H         86.29013       80.38671       38.88689
H         87.19597       81.16764       37.55199
H         85.40619       80.93945       37.42520
H         85.48136       80.90392       35.13771
H         85.97598       79.91314       33.73045
H         84.77381       79.25437       34.88900
N         84.82864       76.16811       36.01224
C         84.92974       74.77924       35.56480
C         84.56467       74.56752       34.09388
O         84.55350       73.40413       33.70840
C         84.07951       73.89042       36.50756
C         82.69122       74.42050       36.65073
O         82.32850       74.95591       37.82919
O         81.96191       74.52917       35.67781
H         83.95915       76.67839       35.80685
H         85.97228       74.40725       35.67223
H         84.55314       73.92376       37.51385
H         84.07085       72.82909       36.17982
N         84.28344       75.57409       33.20087
C         84.01532       75.28356       31.78351
C         83.69808       76.54598       30.97128
O         84.48215       77.48513       31.05229
C         85.25985       74.62693       31.11542
C         84.88893       73.95707       29.81552
C         85.35584       74.44094       28.58366
C         84.06615       72.81463       29.83915
C         84.99507       73.79583       27.39472
C         83.71368       72.17141       28.65127
C         84.17617       72.66251       27.42896
H         84.27424       76.55440       33.52199
H         83.16525       74.57042       31.74974
H         85.72213       73.83409       31.73168
H         86.04851       75.39974       30.97773
H         85.98889       75.31789       28.54216
H         83.70131       72.41999       30.77991
H         85.35070       74.17318       26.44526
H         83.08228       71.29236       28.68034
H         83.90055       72.16297       26.50934
N         82.65308       76.63078       30.08361
C         82.47502       77.74642       29.16037
C         81.86917       78.98607       29.79854
O         81.66679       79.95476       29.07954
C         81.58157       77.15740       28.06351
C         80.69944       76.21579       28.85226
C         81.70796       75.56602       29.79857
H         83.43834       78.04081       28.68598
H         81.05823       77.89778       27.42013
H         82.21732       76.52117       27.40431
H         79.99871       76.84013       29.45038
H         80.11040       75.49603       28.24390
H         81.18191       75.18571       30.69840
H         82.24902       74.74681       29.28340
N         81.57176       79.05502       31.12814
C         81.02231       80.26399       31.74233
C         81.97593       81.45482       31.68579
O         81.55780       82.54426       32.05510
C         80.63121       79.99064       33.20830
C         81.85308       79.74500       34.10702
C         81.41421       79.28134       35.45231
O         81.81373       78.06772       35.84021
O         80.70317       79.96499       36.17043
H         81.70688       78.21845       31.71102
H         80.09215       80.52004       31.18803
H         79.96173       79.10098       33.22420
H         80.06135       80.85237       33.62017
H         82.47218       80.66135       34.20588
H         82.49359       78.94851       33.66923
N         83.27371       81.33006       31.28271
C         84.18103       82.45498       31.26429
H         85.18156       82.12718       30.90989
H         83.79815       83.24001       30.57884
H         84.28690       82.87078       32.28893
H         83.65317       80.41622       31.00010
Ca        81.16014       76.82306       37.55334
O         78.99609       75.90371       35.44973
H         78.11430       75.65891       35.07239
H         79.30420       75.08310       35.90990
O         80.63124       79.77247       39.32402
H         80.87051       80.66644       38.97293
H         79.65045       79.71240       39.21267

Ca 1.0



