%chk=apoCaM-CA-Ng.loop1.water3.frame1462.chk
%nprocshared=20
%mem=10GB
%nosave
#b3lyp/svp scf=(tight,noincore,xqc) Test 
#IOP(5/87=12) Density=Current Pop=(MK,readradii) iop(6/33=2) iop(6/42=6)

apoCaM-CA-Ng.loop1.water3.frame1462 

   0  1 
C         55.59665       64.63634       92.67149
C         54.70892       65.61001       91.95363
O         55.03383       65.98269       90.83919
H         56.60521       65.08524       92.79704
H         55.19839       64.38769       93.67736
H         55.68505       63.70209       92.07978
N         53.57097       66.07754       92.54019
C         52.66106       67.04927       91.92530
C         53.23152       68.47039       91.82664
O         52.46664       69.36798       91.49530
C         51.32223       67.07912       92.70418
C         51.41123       67.58843       94.12182
O         52.58284       67.98738       94.65547
O         50.39721       67.64811       94.79772
H         53.31807       65.68805       93.46090
H         52.39435       66.69784       90.90361
H         50.90119       66.05045       92.71958
H         50.60152       67.72251       92.15201
N         54.54271       68.76045       92.07902
C         55.10663       70.10897       92.05799
C         54.70232       70.84581       90.78334
O         54.11580       71.90905       90.92397
C         56.64250       70.10876       92.30911
C         57.01613       69.45727       93.66082
C         58.53304       69.35978       93.85950
C         58.85361       68.56874       95.13914
N         60.29531       68.40446       95.31494
H         55.18027       67.99119       92.28101
H         54.66185       70.67663       92.90777
H         57.01129       71.15824       92.31023
H         57.17357       69.57262       91.50116
H         56.63460       68.42045       93.70601
H         56.55639       70.02798       94.49704
H         58.97757       70.37723       93.91045
H         58.97550       68.81726       92.99508
H         58.38670       67.55930       95.07360
H         58.42728       69.09197       96.02342
H         60.75465       69.33807       95.41437
H         60.47061       67.84313       96.17988
H         60.70057       67.89341       94.49691
N         54.84145       70.35541       89.51422
C         55.49578       69.11516       89.11179
C         54.48214       68.05907       88.66072
O         53.28266       68.29995       88.72171
C         56.50655       69.44618       87.98707
C         55.79452       69.91779       86.74518
O         54.85237       69.12319       86.20570
O         56.03735       71.00518       86.25889
H         54.41500       70.91773       88.76060
H         56.04636       68.66119       89.95080
H         57.09276       68.54253       87.72412
H         57.22953       70.21491       88.34144
N         54.91586       66.85484       88.18689
C         54.04722       65.75687       87.77480
C         53.17016       66.06539       86.57678
O         53.18705       67.16597       86.07668
H         55.93115       66.67564       88.15037
H         53.40689       65.45277       88.62836
H         54.69134       64.89502       87.49673
N         52.38779       65.07856       86.05008
C         51.49325       65.25208       84.88930
C         50.99099       63.88779       84.38598
O         51.15673       62.90100       85.08397
C         50.25353       66.10405       85.28949
C         50.52802       67.56363       85.48392
O         50.31247       68.14031       86.68093
O         50.90393       68.24422       84.54363
H         52.47980       64.15478       86.49022
H         52.07599       65.70127       84.05943
H         49.81482       65.67120       86.21418
H         49.46101       66.06296       84.52719
N         50.35142       63.71188       83.18469
C         50.13490       64.70856       82.14655
C         51.42785       65.11812       81.49383
O         52.11050       64.24565       80.97302
H         50.00798       62.76043       82.97374
H         49.56107       65.57514       82.51101
H         49.51580       64.24835       81.34473
N         51.81841       66.42680       81.45379
C         53.03504       66.86560       80.77904
C         54.01675       67.46763       81.82526
O         53.62031       68.78460       82.11409
C         52.68813       67.88061       79.65327
C         51.74964       67.29197       78.59701
O         53.86931       68.31119       79.02527
H         51.22756       67.13992       81.90880
H         53.52896       65.98853       80.30933
H         52.16010       68.74764       80.11923
H         53.74707       69.26952       78.79419
H         51.52055       68.06663       77.83319
H         52.22426       66.42409       78.09368
H         50.79067       66.97117       79.05583
N         55.42626       67.43437       81.35937
C         56.43527       67.21037       82.42942
C         56.78811       68.52388       83.08765
O         55.92564       69.13863       83.66747
C         56.02782       66.11170       83.47688
C         55.87142       64.73764       82.76980
C         57.07574       66.03191       84.61031
C         55.45898       63.59131       83.69663
H         55.55634       66.66478       80.66327
H         57.37014       66.85311       81.94035
H         55.06270       66.38940       83.95496
H         56.82892       64.46093       82.27590
H         55.08854       64.81408       81.98786
H         56.77603       65.30357       85.38921
H         58.07225       65.75435       84.20680
H         57.16177       67.00388       85.13975
H         55.33401       62.66462       83.09739
H         56.23854       63.38138       84.45665
H         54.49787       63.82474       84.20031
N         58.04771       69.03227       83.04461
C         58.37959       70.31736       83.65572
C         58.63626       71.30349       82.53877
O         59.68804       71.92277       82.47209
C         59.49501       70.14450       84.72088
C         60.80339       69.54992       84.17645
O         59.00585       69.30380       85.73587
H         58.77622       68.52240       82.52441
H         57.50817       70.74085       84.19600
H         59.70275       71.15301       85.14802
H         59.55663       69.46658       86.54591
H         61.23505       70.18166       83.37629
H         61.54718       69.48264       84.99894
H         60.64674       68.52307       83.78643
N         57.67941       71.43265       81.57013
C         57.85175       72.19534       80.34376
C         56.62089       73.05656       80.08416
O         55.54660       72.50064       79.90429
C         58.07144       71.19464       79.17991
C         59.33327       70.34709       79.41086
O         56.95985       70.33938       79.06567
H         56.82277       70.86299       81.64913
H         58.75182       72.84458       80.41446
H         58.19472       71.78225       78.24232
H         57.03494       69.87608       78.19162
H         60.22525       70.99901       79.51707
H         59.23332       69.72375       80.32518
H         59.49248       69.66056       78.55396
N         56.69136       74.42243       80.07310
C         55.52813       75.28948       79.86545
C         54.45272       74.94867       80.87636
O         53.36805       74.51394       80.51228
C         55.01792       75.25248       78.40780
C         56.06749       75.82293       77.44160
C         55.47732       76.03982       76.04054
C         56.49274       76.61665       75.03669
N         57.00537       77.92981       75.43920
H         57.59641       74.87425       80.27140
H         55.82240       76.34583       80.05761
H         54.12248       75.91224       78.35858
H         54.71245       74.22969       78.09771
H         56.94495       75.14208       77.39407
H         56.39489       76.80732       77.83571
H         54.61165       76.73574       76.11068
H         55.10942       75.06812       75.64598
H         55.97873       76.72070       74.05527
H         57.34044       75.90910       74.90716
H         56.21600       78.59523       75.60680
H         57.59684       77.85146       76.29659
H         57.60727       78.30834       74.67273
N         54.72932       75.12139       82.19429
C         53.84726       74.70905       83.27722
C         54.58723       73.72189       84.17079
O         54.12087       72.59407       84.25056
C         53.24632       75.90237       84.04938
C         52.38007       76.77821       83.13029
C         51.74716       77.90465       83.89414
O         52.44313       78.74022       84.44887
O         50.40577       78.00528       83.96031
H         55.63835       75.54123       82.41610
H         52.96422       74.17348       82.86106
H         54.01617       76.53377       84.52321
H         52.59696       75.49890       84.85857
H         51.57857       76.15422       82.67619
H         52.99908       77.20507       82.31246
N         55.74408       73.98447       84.85763
C         56.49312       75.22401       84.92304
H         57.51001       75.05392       84.51039
H         56.04965       76.06660       84.38297
H         56.58770       75.53261       85.98406
H         56.16014       73.21455       85.39464
Ca        53.55536       69.19872       84.35029
O         52.82307       71.30664       81.22358
H         52.99398       72.18086       81.64935
H         53.71871       70.99946       80.93637
O         51.16685       71.64539       84.45653
H         51.25624       72.42767       85.05715
H         50.59197       71.96555       83.71703
O         52.15376       70.97365       87.32633
H         52.61850       70.30228       86.76844
H         51.32438       70.51846       87.61580

Ca 1.0



