%chk=apoCaM-CA-Ng.loop2.water3.frame668.chk
%nprocshared=20
%mem=10GB
%nosave
#b3lyp/svp scf=(tight,noincore,xqc) Test 
#IOP(5/87=12) Density=Current Pop=(MK,readradii) iop(6/33=2) iop(6/42=6)

apoCaM-CA-Ng.loop2.water3.frame668 

   -2  1 
C        -11.40525       54.06247       83.50919
C        -12.82930       54.40612       83.84464
O        -13.65486       54.44964       82.94390
H        -10.76161       54.06757       84.41452
H        -11.35804       53.05339       83.04928
H        -11.00306       54.80902       82.79226
N        -13.18913       54.67740       85.13037
C        -14.54407       55.05252       85.51951
C        -15.53293       53.94113       85.22999
O        -15.22375       52.77786       85.45338
C        -14.59684       55.40339       87.01999
C        -15.96203       55.88767       87.43464
O        -16.66193       55.21700       88.36916
O        -16.44319       56.88652       86.92260
H        -12.46018       54.64037       85.85995
H        -14.83035       55.96892       84.95552
H        -13.86495       56.21135       87.23466
H        -14.31972       54.50951       87.62081
N        -16.79472       54.25698       84.82473
C        -17.82855       53.25401       84.60159
C        -17.49635       52.43240       83.36332
O        -16.59815       52.82678       82.63101
C        -19.17772       53.97570       84.43622
H        -17.03651       55.25485       84.72054
H        -17.87741       52.60941       85.50410
H        -20.03654       53.29870       84.32460
H        -19.37751       54.58994       85.33982
H        -19.15128       54.64463       83.54974
N        -18.14992       51.29074       83.00786
C        -19.17915       50.59781       83.77866
C        -18.63085       50.07425       85.10055
O        -17.59392       49.42573       85.10593
C        -19.80862       49.48594       82.91500
C        -18.85347       48.43063       82.44858
O        -18.40972       47.52002       83.32227
O        -18.60221       48.30284       81.26074
H        -17.86507       50.87015       82.10873
H        -20.03516       51.26107       83.97552
H        -20.25320       49.97652       82.02100
H        -20.63910       48.99060       83.46554
N        -19.31963       50.28624       86.26058
C        -18.91828       49.74214       87.55170
C        -18.97996       50.77531       88.66832
O        -19.28678       51.92763       88.39778
H        -20.22441       50.77874       86.21422
H        -17.90545       49.28599       87.51107
H        -19.65151       48.94771       87.79928
N        -18.74258       50.44447       89.97713
C        -18.32864       49.10844       90.40156
C        -16.83476       48.93973       90.23555
O        -16.13083       49.91853       90.02013
C        -18.79487       48.75006       91.83280
C        -18.13343       49.54788       92.93568
N        -17.37308       48.92832       93.87010
O        -18.29786       50.75598       93.00217
H        -18.84593       51.18528       90.68488
H        -18.83386       48.36700       89.75086
H        -18.57856       47.67139       91.99687
H        -19.89701       48.87286       91.90274
H        -17.22126       47.90934       93.84290
H        -16.93203       49.46993       94.62819
N        -16.28792       47.69716       90.26559
C        -14.87332       47.48525       90.03514
C        -14.59393       46.03657       89.75677
O        -13.78849       45.42967       90.44781
H        -16.91095       46.88290       90.38404
H        -14.28373       47.87284       90.89500
H        -14.56204       48.03685       89.12183
N        -15.20814       45.44051       88.69509
C        -14.91269       44.09378       88.23707
C        -14.27276       44.22233       86.87233
O        -14.90380       44.70472       85.94078
C        -16.18627       43.22337       88.22341
C        -15.91774       41.83795       87.61606
O        -16.64340       43.08169       89.54392
H        -15.87403       45.99928       88.13729
H        -14.18699       43.60455       88.92361
H        -16.96323       43.73344       87.61391
H        -17.55355       42.68824       89.49642
H        -15.60290       41.93231       86.55444
H        -15.12352       41.30837       88.18281
H        -16.84553       41.22870       87.63579
N        -12.97094       43.86624       86.71848
C        -12.22780       44.06611       85.48556
C        -12.70990       43.09071       84.42553
O        -12.67068       41.88810       84.64355
C        -10.69560       43.91572       85.73847
C         -9.89509       44.09759       84.41869
C        -10.23367       44.95961       86.78569
C         -8.39945       43.81707       84.56368
H        -12.47241       43.49506       87.54011
H        -12.37744       45.11556       85.14541
H        -10.50705       42.89250       86.13195
H        -10.03278       45.12699       84.02988
H        -10.27043       43.38790       83.65283
H         -9.16359       44.83742       87.03819
H        -10.39839       45.99099       86.40367
H        -10.77943       44.86315       87.74479
H         -8.24317       42.77694       84.91956
H         -7.90522       43.93318       83.57708
H         -7.91181       44.52620       85.26030
N        -13.09904       43.56422       83.21367
C        -13.45537       42.74212       82.07053
C        -12.32370       42.75595       81.06372
O        -11.94075       41.67789       80.63065
C        -14.81250       43.20496       81.50785
C        -15.87273       42.78890       82.49325
O        -15.99223       41.60690       82.77302
O        -16.67395       43.66357       83.11558
H        -13.09048       44.57760       83.06507
H        -13.55830       41.67093       82.35842
H        -15.02513       42.69269       80.54510
H        -14.81104       44.30414       81.32411
N        -11.68686       43.90567       80.69475
C        -10.50413       43.90380       79.83140
C        -10.09685       45.34331       79.49305
O         -8.95299       45.70812       79.74122
C         -9.34112       43.15439       80.56481
C         -8.03902       42.92699       79.81961
C         -6.95694       42.40542       80.55343
C         -7.85820       43.20145       78.44899
C         -5.72215       42.17695       79.94196
C         -6.61995       42.96419       77.83973
C         -5.55308       42.45654       78.58565
H        -12.03276       44.79963       81.06489
H        -10.76486       43.38095       78.88551
H         -9.65877       42.15055       80.90530
H         -9.11432       43.74686       81.47648
H         -7.06845       42.18339       81.60832
H         -8.66227       43.59149       77.84204
H         -4.89637       41.78366       80.52153
H         -6.48582       43.17469       76.78676
H         -4.59551       42.27802       78.11330
N        -10.95974       46.23707       78.91458
C        -10.57714       47.58393       78.51019
C         -9.95881       48.43804       79.60618
O         -9.31393       49.42276       79.27584
C        -11.89849       48.21319       78.06113
C        -12.64090       47.01817       77.50496
C        -12.33046       45.94653       78.54382
H         -9.85365       47.46521       77.67153
H        -12.46906       48.54223       78.96203
H        -11.78930       49.07918       77.37483
H        -13.72477       47.17529       77.32054
H        -12.14638       46.73284       76.54911
H        -12.97497       46.06796       79.44179
H        -12.46720       44.94399       78.08681
N        -10.13977       48.14686       80.92852
C         -9.51941       48.92763       81.99205
C         -8.02010       48.75091       81.89069
O         -7.30721       49.72812       81.70834
C         -9.96379       48.54304       83.43516
C        -11.46663       48.70834       83.75585
C        -12.32796       47.53654       83.37845
O        -13.64638       47.56411       83.64145
O        -11.83833       46.52173       82.92398
H        -10.72931       47.35068       81.16186
H         -9.79691       49.99753       81.85346
H         -9.43323       49.26597       84.09460
H         -9.62402       47.53048       83.73998
H        -11.84957       49.64759       83.30337
H        -11.57542       48.78872       84.85889
N         -7.47890       47.50324       81.97453
C         -6.06102       47.26011       81.84626
H         -5.51069       47.78646       82.65358
H         -5.85905       46.17002       81.92448
H         -5.70620       47.61460       80.85526
H         -8.09780       46.68986       82.11665
Ca       -17.31426       45.72536       82.58648
O        -14.83657       48.37163       86.36098
H        -14.05909       48.89401       86.04018
H        -15.34380       49.00730       86.92556
O        -17.96312       45.53625       85.76326
H        -18.01602       44.56393       85.58209
H        -18.23647       45.62993       86.71036
O        -15.53757       48.94682       81.98724
H        -15.45845       49.85449       81.60074
H        -14.95375       48.38337       81.41926

Ca 1.0



