%chk=apoCaM-CA-Ng.loop3.water8.frame51.chk
%nprocshared=20
%mem=10GB
%nosave
#b3lyp/svp scf=(tight,noincore,xqc) Test 
#IOP(5/87=12) Density=Current Pop=(MK,readradii) iop(6/33=2) iop(6/42=6)

apoCaM-CA-Ng.loop3.water8.frame51 

   0  1 
C         53.47070       53.44774       30.36069
C         52.78803       53.78317       29.06540
O         51.92582       53.03146       28.63774
H         54.23458       54.20932       30.62722
H         52.72010       53.40462       31.17698
H         53.97625       52.46575       30.27799
N         53.13238       54.91096       28.38400
C         52.52848       55.35657       27.13170
C         52.75526       54.34432       26.01288
O         51.83121       54.03034       25.27416
C         51.02956       55.69782       27.31167
C         50.77811       56.69122       28.41559
O         51.10108       56.39351       29.68936
O         50.24446       57.76018       28.16762
H         53.87642       55.50970       28.77515
H         53.05701       56.28966       26.83246
H         50.46385       54.77484       27.53904
H         50.63599       56.10766       26.35552
N         53.97998       53.77126       25.85504
C         54.30654       52.81187       24.80373
C         54.39261       51.39432       25.34499
O         54.72717       50.50550       24.57239
C         55.65341       53.21671       24.16245
C         55.61281       54.58127       23.44822
C         54.77116       54.60761       22.15674
C         55.36803       53.72388       21.04409
N         54.59776       53.83981       19.80690
H         54.71638       53.99312       26.54334
H         53.51485       52.77487       24.02579
H         56.00464       52.44129       23.45279
H         56.41227       53.26657       24.97436
H         56.65181       54.87275       23.18207
H         55.22668       55.34657       24.15530
H         54.76039       55.65624       21.78854
H         53.72121       54.31369       22.36396
H         55.38079       52.65774       21.35230
H         56.41600       54.04425       20.84774
H         53.61976       53.50346       19.96109
H         54.58531       54.83318       19.48018
H         55.04689       53.24908       19.06968
N         54.06956       51.08395       26.63565
C         54.13173       49.72025       27.15265
C         53.18580       48.79137       26.38405
O         52.39516       49.26243       25.57885
C         53.82962       49.74260       28.67331
C         54.07056       48.42352       29.33529
O         55.28689       47.85694       29.24201
O         53.17401       47.85525       29.93655
H         53.78383       51.83392       27.27785
H         55.17431       49.36631       27.00375
H         52.78408       50.08331       28.84836
H         54.51899       50.46633       29.15682
N         53.25333       47.44149       26.55245
C         52.41490       46.48895       25.84621
C         50.95682       46.63013       26.20163
O         50.12250       46.50635       25.31549
H         53.95605       47.04679       27.19013
H         52.73027       45.46492       26.13711
H         52.55877       46.58163       24.74648
N         50.56673       46.87243       27.48633
C         49.16325       46.97551       27.87074
C         48.44607       48.15371       27.21506
O         47.23391       48.22585       27.35513
C         49.01942       47.12471       29.40174
C         49.50519       45.92953       30.17817
N         50.46023       46.06230       31.12904
O         49.00538       44.83416       29.97146
H         51.29140       46.97574       28.21107
H         48.64991       46.04055       27.55443
H         47.94933       47.25888       29.65461
H         49.57042       48.02824       29.72527
H         50.88386       46.97894       31.33379
H         50.77017       45.24505       31.67542
N         49.10346       49.13146       26.52259
C         48.42504       50.29327       25.97232
C         47.79455       51.07255       27.09256
O         46.57994       51.22237       27.10635
H         50.12045       49.08996       26.41163
H         47.66072       49.96603       25.23325
H         49.15825       50.94603       25.45074
N         48.57300       51.54535       28.10625
C         48.03278       52.16116       29.31129
C         48.38075       51.27378       30.49950
O         49.07493       50.28467       30.30805
C         48.58672       53.59382       29.43314
C         47.83847       54.46030       30.41156
C         46.48534       54.76096       30.17762
C         48.47756       55.00265       31.53771
C         45.78149       55.58645       31.05511
C         47.76853       55.82741       32.41850
C         46.41760       56.12273       32.17773
O         45.72303       56.92176       33.01214
H         49.59542       51.40633       28.04795
H         46.92574       52.20530       29.23615
H         48.48021       54.09640       28.44855
H         49.66791       53.54165       29.67823
H         45.97679       54.36533       29.30709
H         49.52044       54.78810       31.73529
H         44.74127       55.81311       30.85713
H         48.27011       56.23881       33.28496
H         46.12433       57.31990       33.79724
N         47.90989       51.51692       31.75126
C         48.12209       50.57144       32.84769
C         47.41594       49.26431       32.49680
O         48.02594       48.21062       32.61135
C         47.63252       51.14447       34.21313
C         48.32363       52.49198       34.57834
C         47.84863       50.13459       35.36381
C         49.84696       52.42209       34.76468
H         47.33144       52.35327       31.91122
H         49.20939       50.36868       32.96497
H         46.54021       51.34196       34.13455
H         47.88128       52.87332       35.52412
H         48.11090       53.24904       33.79975
H         47.31776       49.18435       35.19218
H         48.91875       49.87133       35.48156
H         47.47104       50.55667       36.31952
H         50.35588       52.09555       33.83543
H         50.23121       53.43063       35.02319
H         50.12448       51.74178       35.59535
N         46.14387       49.27488       31.99111
C         45.44062       48.05664       31.59045
C         44.92265       47.27028       32.78430
O         44.40131       46.18202       32.57990
C         44.28208       48.38679       30.63591
O         44.75228       49.08628       29.51493
H         45.69034       50.18529       31.82226
H         46.14442       47.41266       31.02184
H         43.52752       49.01417       31.15388
H         43.76801       47.45504       30.30311
H         45.25208       48.43062       28.96275
N         45.06068       47.73655       34.06069
C         44.70322       46.99489       35.26109
C         45.36102       45.62387       35.23424
O         44.69198       44.61478       35.40856
C         43.18035       46.94566       35.42950
H         45.49239       48.65295       34.21346
H         45.10722       47.55488       36.13451
H         42.77852       47.98209       35.45747
H         42.69960       46.40241       34.59013
H         42.91772       46.44694       36.38617
N         46.68470       45.53359       34.92508
C         47.39669       44.27923       34.73010
C         48.65900       44.27145       35.56271
O         49.39989       45.24179       35.51587
C         47.75337       44.13595       33.25064
H         47.20162       46.40652       34.73489
H         46.75962       43.40295       34.98412
H         48.28698       43.17547       33.08141
H         46.82312       44.12671       32.64202
H         48.39466       44.97507       32.91099
N         48.95703       43.20198       36.35418
C         50.12915       43.08453       37.21945
C         50.17442       44.21751       38.23070
O         51.19814       44.87153       38.37547
C         51.47064       42.86714       36.45280
C         51.94917       44.00665       35.53170
C         53.36192       43.77817       35.08085
O         53.62011       43.66695       33.89415
O         54.35824       43.72996       35.98691
H         48.28586       42.41882       36.38001
H         49.99098       42.15243       37.81304
H         51.40446       41.93636       35.84678
H         52.24614       42.69771       37.23238
H         51.94008       44.98057       36.06004
H         51.29053       44.06701       34.64040
N         49.07416       44.49346       38.98288
C         49.03297       45.55091       39.97203
H         48.25533       46.28913       39.68650
H         48.77867       45.11717       40.96087
H         50.00273       46.08435       40.06477
H         48.21718       43.93685       38.84405
Ca        55.68838       45.76159       29.95238
O         55.00820       43.81177       27.55121
H         55.26299       43.77596       26.59534
H         54.02080       43.74282       27.54632
O         52.96190       44.67745       29.89371
H         52.27721       43.99362       30.09865
H         52.48846       45.34455       29.33865
O         55.43363       42.92783       30.76902
H         54.78756       43.05082       31.50866
H         55.65974       41.96490       30.79222
O         56.72423       46.66847       26.97733
H         56.14906       46.22552       26.30474
H         56.79573       47.60510       26.66657
O         55.00610       46.48736       32.79113
H         54.06172       46.74513       32.64325
H         55.03717       45.52412       32.56478
O         57.97480       44.82962       31.62426
H         58.42369       45.05714       32.47640
H         58.47743       44.05141       31.27520
O         57.84659       47.84718       30.64494
H         57.19129       48.24299       31.27334
H         58.66701       48.38679       30.76656
O         58.21773       44.64201       28.49388
H         58.95033       45.27427       28.28400
H         58.46887       43.80444       28.03014

Ca 1.0



