%chk=apoCaM-CA-Ng.loop2.water3.frame164.chk
%nprocshared=20
%mem=10GB
%nosave
#b3lyp/svp scf=(tight,noincore,xqc) Test 
#IOP(5/87=12) Density=Current Pop=(MK,readradii) iop(6/33=2) iop(6/42=6)

apoCaM-CA-Ng.loop2.water3.frame164 

   -2  1 
C         79.92389       53.95917       58.88761
C         80.46059       52.82281       59.70661
O         79.98189       51.70839       59.55579
H         78.84392       54.09607       59.10351
H         80.45292       54.90863       59.11722
H         80.05819       53.73416       57.80921
N         81.45929       53.03814       60.60578
C         82.04348       51.99441       61.43445
C         81.77590       52.26781       62.91158
O         82.34840       51.57345       63.73455
C         83.55523       51.92002       61.11665
C         84.24005       50.75567       61.78343
O         83.88175       49.61269       61.54556
O         85.26122       50.96814       62.63521
H         81.83228       53.99459       60.71549
H         81.60379       51.00078       61.19481
H         84.04708       52.87130       61.41640
H         83.68747       51.79179       60.02025
N         80.90506       53.23984       63.33152
C         80.63436       53.52922       64.73533
C         79.97150       52.34178       65.43300
O         78.81844       52.07081       65.12806
C         81.89655       54.07323       65.42480
H         80.39906       53.81078       62.64007
H         79.90100       54.36540       64.79533
H         81.66090       54.35301       66.47396
H         82.73560       53.35030       65.42506
H         82.23933       54.98612       64.89241
N         80.62955       51.57987       66.35642
C         80.01378       50.48336       67.10352
C         80.44012       49.11262       66.58457
O         80.08608       48.11675       67.20064
C         80.27045       50.65167       68.62416
C         81.72046       50.59147       69.04110
O         82.51057       51.45189       68.68786
O         82.14090       49.61137       69.86307
H         81.62750       51.75497       66.51263
H         78.91011       50.50488       66.97794
H         79.72311       49.84376       69.15767
H         79.84374       51.61917       68.96712
N         81.11734       48.97666       65.40830
C         81.47035       47.70120       64.80982
C         80.24040       46.86531       64.53956
O         80.16308       45.75197       65.03919
H         81.36758       49.81120       64.87562
H         82.17500       47.15941       65.47725
H         81.98875       47.88923       63.84335
N         79.22394       47.35210       63.77096
C         77.96376       46.63771       63.58221
C         78.00989       45.72876       62.36888
O         78.20512       46.19527       61.25533
C         76.78882       47.62720       63.46711
C         76.55113       48.34176       64.77286
N         76.16263       47.64637       65.86954
O         76.69207       49.55297       64.83946
H         79.31146       48.31027       63.39653
H         77.76381       46.00729       64.47535
H         75.85344       47.08085       63.21729
H         76.99323       48.35164       62.64724
H         76.01778       46.62675       65.82682
H         75.98660       48.12397       66.76348
N         77.80321       44.39306       62.53797
C         77.77708       43.40980       61.47144
C         76.58483       43.56490       60.55232
O         75.46704       43.66738       61.03943
H         77.66049       44.03289       63.49425
H         77.66217       42.41077       61.94654
H         78.74027       43.40279       60.91803
N         76.74212       43.45786       59.20039
C         75.60793       43.37512       58.27618
C         74.90913       44.71288       58.03925
O         73.88145       44.71617       57.37872
C         76.02841       42.73195       56.92243
C         76.99951       43.58562       56.09056
O         76.54836       41.44087       57.13273
H         77.69498       43.28890       58.84802
H         74.86547       42.67448       58.72218
H         75.11521       42.60843       56.29967
H         77.49278       41.52409       57.42530
H         76.51451       44.53583       55.81789
H         77.94052       43.79920       56.63792
H         77.25005       43.06038       55.14577
N         75.41961       45.88499       58.51357
C         74.80747       47.19442       58.28048
C         74.45100       47.84230       59.60443
O         74.66714       47.25055       60.65174
C         75.77505       48.12127       57.46777
C         77.14787       48.29448       58.16960
C         75.91209       47.63168       56.02418
C         77.98261       49.43003       57.58216
H         76.28977       45.86311       59.05997
H         73.85621       47.10625       57.71150
H         75.31571       49.12161       57.37223
H         77.72733       47.34788       58.12396
H         76.98925       48.54784       59.23853
H         74.90581       47.53611       55.56049
H         76.48684       48.35234       55.40974
H         76.42321       46.65932       55.99629
H         78.22842       49.24897       56.51789
H         77.43180       50.39090       57.67820
H         78.93374       49.51282       58.14785
N         73.96025       49.11625       59.61336
C         73.80976       49.89066       60.82660
C         72.51236       50.71967       60.81770
O         72.27912       51.45825       61.76611
C         75.07771       50.76040       60.93165
C         75.29901       51.31847       62.29762
O         76.24106       52.07042       62.49337
O         74.48596       50.99058       63.31888
H         73.85393       49.62126       58.72683
H         73.79551       49.20623       61.70310
H         75.03209       51.57236       60.17377
H         75.97652       50.14194       60.71627
N         71.60150       50.62358       59.80140
C         70.31747       51.31595       59.78998
C         70.47963       52.82873       59.61856
O         71.10065       53.22687       58.64191
C         69.45402       50.79656       58.61415
C         68.02710       51.25991       58.75323
C         67.23205       50.73768       59.78817
C         67.47811       52.20635       57.87355
C         65.91167       51.15916       59.94629
C         66.15564       52.63244       58.04068
C         65.37387       52.10898       59.07558
H         71.77569       49.96839       59.02788
H         69.80022       51.04604       60.73236
H         69.44129       49.68487       58.59011
H         69.90441       51.13753       57.65442
H         67.63737       50.00107       60.47144
H         68.07439       52.62456       57.07220
H         65.30857       50.74951       60.74611
H         65.73623       53.37031       57.36974
H         64.35127       52.43793       59.20388
N         69.90085       53.74080       60.46356
C         69.94525       55.18834       60.28058
C         71.33735       55.73350       60.05910
O         71.53137       56.48619       59.11452
C         69.35048       55.73485       61.58157
C         68.31618       54.68341       61.89829
C         69.08366       53.39612       61.60990
H         69.28762       55.45547       59.42029
H         70.10694       55.69154       62.39725
H         68.96631       56.77505       61.50519
H         67.86608       54.73755       62.91125
H         67.50207       54.78353       61.14155
H         69.75437       53.09823       62.44448
H         68.33435       52.60796       61.40262
N         72.36621       55.35447       60.87038
C         73.74175       55.80143       60.67789
C         74.19778       55.51570       59.25863
O         74.61022       56.44596       58.57802
C         74.69765       55.13609       61.69805
C         74.46007       55.64827       63.13380
C         75.50670       55.16580       64.10717
O         76.68680       55.39317       63.89499
O         75.15721       54.53642       65.24610
H         72.16351       54.68364       61.62673
H         73.79764       56.90374       60.82839
H         75.73674       55.41193       61.41412
H         74.60429       54.02993       61.64823
H         73.44609       55.36738       63.49087
H         74.53193       56.75623       63.12187
N         74.11047       54.26841       58.72507
C         74.49229       54.00204       57.35453
H         75.57284       54.21595       57.21327
H         74.29689       52.93870       57.10370
H         73.89916       54.64173       56.66399
H         73.73322       53.49601       59.29326
Ca        74.61172       52.40421       65.00599
O         72.70489       51.40238       67.02555
H         72.99125       50.47879       66.81201
H         73.44998       51.77506       67.56114
O         77.26916       53.91588       66.99793
H         78.18540       54.28954       66.97585
H         77.18013       53.51872       67.89987
O         76.24595       50.62790       67.85778
H         76.07811       51.14515       68.68455
H         76.79047       49.85754       68.15806

Ca 1.0



