%chk=apoCaM-CA-Ng.loop3.water4.frame1083.chk
%nprocshared=20
%mem=10GB
%nosave
#b3lyp/svp scf=(tight,noincore,xqc) Test 
#IOP(5/87=12) Density=Current Pop=(MK,readradii) iop(6/33=2) iop(6/42=6)

apoCaM-CA-Ng.loop3.water4.frame1083 

   0  1 
C         50.29923       84.22529       15.46071
C         50.82143       85.41527       14.71872
O         50.97976       86.47146       15.31451
H         49.34053       83.90302       15.00078
H         51.03222       83.39501       15.40002
H         50.11636       84.47577       16.52701
N         51.08604       85.31343       13.38835
C         51.51425       86.43510       12.56992
C         50.38709       86.78330       11.61783
O         49.88502       87.89420       11.70602
C         52.91040       86.17374       11.94576
C         53.10711       84.88280       11.18604
O         52.55519       84.68122       10.11906
O         53.97022       83.96255       11.65773
H         50.92768       84.40554       12.92416
H         51.66128       87.34276       13.19868
H         53.62696       86.14397       12.79575
H         53.20174       87.03513       11.30854
N         49.89573       85.88624       10.71906
C         48.74723       86.15262        9.86140
C         49.25201       86.45113        8.46916
O         48.92751       85.77685        7.50233
C         47.75168       84.98246        9.97828
C         47.17492       84.92255       11.40844
C         46.34879       83.66523       11.70504
C         45.14828       83.47124       10.77111
N         44.36694       82.30396       11.18017
H         50.32769       84.95857       10.64329
H         48.21537       87.08008       10.16812
H         48.27862       84.03448        9.73193
H         46.91691       85.12403        9.25888
H         46.55694       85.83062       11.58422
H         48.00300       84.92657       12.15021
H         45.98177       83.74944       12.75198
H         47.00860       82.77277       11.64104
H         45.50689       83.31887        9.72990
H         44.49969       84.37426       10.79681
H         43.97486       82.45507       12.13830
H         43.57731       82.16555       10.50958
H         44.96749       81.44723       11.17881
N         50.06844       87.52993        8.33967
C         50.65696       88.03917        7.11468
C         52.18070       87.98872        7.19576
O         52.83207       88.54719        6.32357
C         50.14525       89.48738        6.90897
C         50.39198       90.38821        8.09630
O         49.44723       90.88446        8.69023
O         51.64552       90.63608        8.52137
H         50.29724       88.05458        9.19648
H         50.34849       87.44397        6.22782
H         49.04840       89.44001        6.72874
H         50.61370       89.93660        6.00775
N         52.82045       87.33694        8.21371
C         54.26006       87.34526        8.40111
C         55.04478       86.72050        7.26938
O         54.45376       86.23480        6.31548
H         52.27284       86.84223        8.92769
H         54.50144       86.78435        9.32614
H         54.57529       88.40108        8.52094
N         56.40989       86.72102        7.27193
C         57.22617       87.26975        8.35433
C         57.17416       86.37674        9.59340
O         57.45621       85.19374        9.46858
C         58.69787       87.41730        7.91756
C         58.84854       88.43104        6.80900
N         58.50385       89.72769        7.00522
O         59.29834       88.08171        5.72859
H         56.88899       86.34475        6.43809
H         56.87617       88.29240        8.57759
H         59.09685       86.42846        7.60023
H         59.30645       87.77491        8.77787
H         58.13877       90.05071        7.91350
H         58.60981       90.41927        6.24878
N         56.88623       86.85904       10.84001
C         56.59525       88.26272       11.08107
C         56.44815       88.64580       12.52944
O         56.60719       87.82294       13.42337
H         56.91392       86.19798       11.63259
H         55.65387       88.53203       10.56451
H         57.43094       88.88003       10.68607
N         56.15283       89.94340       12.81887
C         56.07395       90.46877       14.17522
C         55.13574       91.67962       14.23564
O         54.71264       92.18060       13.20028
C         57.51655       90.79894       14.62879
C         57.67662       91.23409       16.06290
C         58.20122       92.50315       16.36174
C         57.34598       90.36356       17.11467
C         58.38873       92.89574       17.68967
C         57.53442       90.75880       18.44297
C         58.05819       92.02710       18.73427
O         58.25343       92.41872       20.00953
H         56.04058       90.59247       12.02384
H         55.62298       89.68364       14.82347
H         57.91431       91.58033       13.94354
H         58.15289       89.89640       14.49657
H         58.47415       93.18759       15.56809
H         56.95254       89.37670       16.90638
H         58.79877       93.87432       17.90612
H         57.27992       90.07655       19.24408
H         58.04602       91.84605       20.76159
N         54.69490       92.14760       15.43436
C         53.71027       93.22894       15.56453
C         54.25091       94.59387       15.13606
O         55.43479       94.72427       14.85956
C         53.11112       93.28351       17.01093
C         52.18202       92.06367       17.23046
C         54.18713       93.41465       18.11478
C         51.40265       92.11576       18.54445
H         55.00465       91.63840       16.27110
H         52.86833       93.01304       14.87082
H         52.46043       94.17988       17.07889
H         52.75416       91.11311       17.17607
H         51.42516       92.05704       16.41417
H         54.85698       94.27479       17.91114
H         53.71372       93.59002       19.10196
H         54.80460       92.49900       18.21667
H         50.69027       91.26473       18.58181
H         52.08131       92.03286       19.41663
H         50.82326       93.06171       18.61156
N         53.39511       95.66515       15.07177
C         53.79527       97.03344       14.74067
C         53.00204       97.59554       13.55763
O         52.13042       96.91689       13.03302
C         53.60680       97.91061       15.98833
O         52.25948       97.92417       16.37599
H         52.40270       95.51417       15.30651
H         54.87218       97.06108       14.46647
H         53.94647       98.94934       15.78872
H         54.23164       97.48354       16.80596
H         52.23257       98.36285       17.26562
N         53.29088       98.84646       13.07604
C         52.67971       99.46713       11.89829
C         51.20269       99.81829       12.04420
O         50.59272      100.14755       11.03596
C         52.94713       98.62668       10.64156
H         54.04112       99.38259       13.53613
H         53.19129      100.43901       11.71582
H         54.03982       98.46217       10.53082
H         52.43032       97.64779       10.67963
H         52.59576       99.17030        9.73745
N         50.57771       99.86672       13.25760
C         49.18751      100.28213       13.43436
C         48.24317       99.29701       12.77497
O         47.48108       99.65794       11.88771
C         48.95921      101.73769       12.98286
H         51.10850       99.63215       14.10872
H         48.95141      100.26659       14.52241
H         47.91247      102.03983       13.20662
H         49.63768      102.41678       13.54086
H         49.12512      101.87969       11.89674
N         48.20614       98.02342       13.24829
C         47.24605       97.01867       12.82049
C         46.21982       96.86758       13.92194
O         45.04241       97.06753       13.65588
C         47.97153       95.69454       12.49585
C         46.98528       94.55484       12.18702
C         47.70315       93.30173       11.78111
O         47.48157       92.79678       10.69226
O         48.58458       92.71785       12.61401
H         48.83367       97.78549       14.03194
H         46.70486       97.34318       11.90171
H         48.60892       95.38798       13.35429
H         48.63271       95.86669       11.61723
H         46.29754       94.86595       11.37105
H         46.38017       94.32905       13.09184
N         46.59837       96.55276       15.19191
C         45.66585       96.44381       16.29383
H         44.61394       96.60713       15.97782
H         45.74631       95.43342       16.74313
H         45.91980       97.20509       17.06112
H         47.59616       96.40491       15.40223
Ca        49.63230       90.84611       11.91079
O         51.14302       93.13654       10.57128
H         50.86815       94.01605       10.93291
H         50.77037       93.11967        9.65439
O         52.17609       90.26568       13.38698
H         51.77357       89.84795       14.18883
H         51.91480       91.21872       13.44888
O         48.74932       89.05037       14.25804
H         48.49683       88.13988       13.96220
H         49.51739       88.90885       14.86589
O         47.06497       89.24994       11.51714
H         46.73186       88.39845       11.89680
H         46.72044       89.26183       10.58916

Ca 1.0



