%chk=apoCaM-CA-Ng.loop1.water3.frame56.chk
%nprocshared=20
%mem=10GB
%nosave
#b3lyp/svp scf=(tight,noincore,xqc) Test 
#IOP(5/87=12) Density=Current Pop=(MK,readradii) iop(6/33=2) iop(6/42=6)

apoCaM-CA-Ng.loop1.water3.frame56 

   0  1 
C         62.88790       76.16571       66.53834
C         62.27941       77.52040       66.33866
O         61.78897       77.79303       65.25169
H         63.94738       76.26926       66.85358
H         62.32077       75.61981       67.31978
H         62.85488       75.57872       65.59475
N         62.31386       78.44310       67.34385
C         61.75745       79.78617       67.20421
C         62.87101       80.79423       66.95936
O         62.94872       81.80552       67.64358
C         60.82998       80.14242       68.39871
C         61.52904       80.22807       69.73617
O         62.04948       79.24458       70.23692
O         61.54934       81.39614       70.40708
H         62.80881       78.19033       68.21022
H         61.12558       79.83019       66.29020
H         60.00996       79.39547       68.47353
H         60.36653       81.13130       68.19269
N         63.77291       80.56553       65.95893
C         64.83905       81.48738       65.58367
C         64.81207       81.70136       64.06946
O         64.98569       80.71232       63.36884
C         66.21303       80.88608       65.94448
C         66.43009       80.68263       67.45150
C         67.82055       80.06541       67.68830
C         68.14108       79.78389       69.16454
N         68.25155       81.00901       69.95743
H         63.71312       79.67812       65.43808
H         64.74079       82.43421       66.13610
H         67.00431       81.57651       65.57510
H         66.33151       79.90665       65.42892
H         65.65341       79.99884       67.85812
H         66.34815       81.66590       67.96120
H         68.60767       80.72863       67.26648
H         67.86283       79.09408       67.14806
H         69.11761       79.25085       69.20316
H         67.36889       79.11355       69.60188
H         68.54180       80.75572       70.92962
H         68.97832       81.63913       69.54611
H         67.33374       81.50416       70.00667
N         64.64670       82.90478       63.43616
C         64.35930       84.20524       64.03414
C         65.44790       84.66025       64.99821
O         65.16340       84.85172       66.17291
C         62.94080       84.22412       64.64737
C         61.85134       83.97765       63.63561
O         62.10693       83.75986       62.46078
O         60.56788       84.02284       64.03410
H         64.70865       82.89482       62.40505
H         64.33021       84.96922       63.22489
H         62.75703       85.23028       65.07585
H         62.84445       83.47859       65.45864
N         66.72334       84.91336       64.59002
C         67.15415       84.79661       63.20322
C         68.60289       85.19904       62.99312
O         69.27643       85.56837       63.94446
H         67.38998       85.23312       65.30876
H         66.52304       85.45634       62.57726
H         67.03710       83.74372       62.87539
N         69.19479       85.13330       61.76719
C         68.52308       84.70270       60.54648
C         67.50066       85.73522       60.08418
O         67.84599       86.89914       59.93113
C         69.56628       84.45549       59.43616
C         68.93397       83.86762       58.20301
O         68.27578       82.69382       58.27566
O         69.02150       84.44406       57.13121
H         70.19961       85.36850       61.71462
H         68.04115       83.71713       60.73060
H         70.31803       83.72331       59.80526
H         70.09699       85.40091       59.18748
N         66.23670       85.34302       59.76079
C         65.23700       86.22310       59.17445
C         64.55184       87.15060       60.16011
O         64.88868       87.18420       61.33432
H         66.00545       84.34009       59.81868
H         64.43353       85.58516       58.74825
H         65.68252       86.79635       58.32957
N         63.52432       87.92306       59.70397
C         62.73429       88.85283       60.51412
C         61.97014       88.16983       61.64916
O         61.29442       87.17963       61.41968
C         61.73046       89.64839       59.62951
C         60.65843       88.78425       58.93871
O         62.44660       90.36468       58.65619
H         63.30860       87.85310       58.69795
H         63.42291       89.61425       60.94513
H         61.21000       90.37057       60.30385
H         61.87329       91.12701       58.37828
H         61.11208       88.03993       58.25342
H         60.02314       88.25552       59.67597
H         59.98440       89.43501       58.34420
N         61.97902       88.71566       62.89790
C         61.15910       88.23650       64.01721
C         59.67347       88.43930       63.72665
O         59.28150       89.54782       63.38894
C         61.56475       88.97945       65.33081
C         63.00904       88.55124       65.71319
C         60.57598       88.67664       66.47894
C         63.56240       89.21998       66.96909
H         62.56771       89.54973       63.04691
H         61.34788       87.15433       64.18821
H         61.53082       90.07900       65.15453
H         63.70269       88.79481       64.88130
H         63.03908       87.45196       65.86887
H         60.54665       87.58983       66.70039
H         60.84006       89.23821       67.39618
H         59.55306       89.01806       66.21748
H         63.56663       90.32309       66.85104
H         62.97757       88.93819       67.86748
H         64.60338       88.86970       67.13316
N         58.78610       87.41196       63.91836
C         57.33952       87.53577       63.71036
C         56.50397       87.31522       64.98432
O         55.30417       87.53874       64.90607
C         56.88573       86.58517       62.57670
C         57.09896       85.10197       62.91512
O         57.58991       86.90793       61.40535
H         59.15728       86.50534       64.23392
H         57.10543       88.57118       63.37770
H         55.79606       86.75575       62.40876
H         57.07351       86.53393       60.64422
H         56.73391       84.47021       62.07888
H         58.17083       84.86979       63.06773
H         56.53817       84.82508       63.83177
N         57.04393       86.90687       66.17598
C         56.31603       86.75893       67.44826
C         55.20855       85.70773       67.41582
O         54.25152       85.86272       66.67210
C         55.72895       88.10189       67.94776
C         56.81192       89.16606       68.11639
O         55.11168       87.89423       69.19642
H         58.05405       86.71244       66.21560
H         57.05817       86.43787       68.21316
H         54.98258       88.47460       67.20721
H         54.23050       88.35158       69.17819
H         57.29992       89.38310       67.14463
H         56.35525       90.10413       68.49664
H         57.57836       88.82232       68.84389
N         55.25683       84.63396       68.26324
C         54.18703       83.64022       68.36609
C         54.60487       82.29412       67.80554
O         53.75853       81.40924       67.75431
C         53.66626       83.52591       69.82266
C         54.70326       83.00083       70.83666
C         54.09169       82.89245       72.24549
C         55.09991       82.43467       73.31674
N         55.57468       81.06660       73.09865
H         56.08665       84.51631       68.86101
H         53.32169       83.95902       67.74523
H         52.79308       82.83525       69.82902
H         53.30540       84.52538       70.15083
H         55.56818       83.69385       70.88427
H         55.05532       82.00250       70.50517
H         53.22553       82.19481       72.23481
H         53.72158       83.89764       72.54454
H         54.59468       82.47827       74.30757
H         55.96428       83.13440       73.34635
H         56.20931       80.80008       73.88608
H         54.76606       80.40345       73.08221
H         56.11570       80.99514       72.20860
N         55.85657       82.06844       67.31109
C         56.21547       80.82280       66.64735
C         56.10905       79.65601       67.60819
O         56.85909       79.59154       68.57319
C         57.63223       80.90626       66.02410
C         57.79527       82.00425       64.94352
C         56.95452       81.77678       63.70811
O         55.73767       81.75779       63.78338
O         57.52461       81.64874       62.49318
H         56.56070       82.81786       67.35774
H         55.49058       80.64996       65.83116
H         57.90207       79.92778       65.57112
H         58.35831       81.11509       66.83976
H         58.86378       82.02493       64.64577
H         57.55372       83.00282       65.36255
N         55.16087       78.69943       67.40256
C         54.99304       77.56330       68.27893
H         54.13504       76.94784       67.93134
H         55.90915       76.93719       68.26429
H         54.78495       77.90652       69.31425
H         54.51755       78.78473       66.60061
Ca        59.72408       81.91112       62.07219
O         59.97306       84.77667       60.44109
H         59.90174       85.01529       61.39881
H         59.06554       84.93673       60.08118
O         62.15344       81.57253       59.78061
H         62.82742       82.29710       59.81703
H         62.38054       81.06237       58.96282
O         61.77898       80.11035       63.11993
H         61.34398       79.52516       62.44990
H         62.36725       80.70032       62.58535

Ca 1.0



