%chk=apoCaM-CA-Ng.loop3.water6.frame374.chk
%nprocshared=20
%mem=10GB
%nosave
#b3lyp/svp scf=(tight,noincore,xqc) Test 
#IOP(5/87=12) Density=Current Pop=(MK,readradii) iop(6/33=2) iop(6/42=6)

apoCaM-CA-Ng.loop3.water6.frame374 

   0  1 
C         53.29285      120.58491       12.64207
C         54.41765      120.94964       11.71556
O         55.54854      120.56848       11.97815
H         52.32076      120.98049       12.27614
H         53.21361      119.48010       12.71347
H         53.48539      121.00513       13.65088
N         54.17282      121.69771       10.60385
C         55.17951      122.09506        9.62815
C         56.25279      122.96799       10.26574
O         57.43684      122.67118       10.18172
C         55.72814      120.86629        8.87117
C         56.58311      121.26920        7.69906
O         56.11259      121.94745        6.79880
O         57.86799      120.87354        7.63049
H         53.20629      122.01440       10.42827
H         54.66180      122.72741        8.87040
H         54.87321      120.27687        8.47421
H         56.30924      120.21641        9.55821
N         55.87528      124.12030       10.87803
C         56.81277      125.13480       11.36141
C         57.57457      124.71832       12.61654
O         58.42533      125.48252       13.05178
C         56.03780      126.45541       11.60038
C         55.43068      126.95681       10.27204
C         54.50633      128.16311       10.43956
C         53.91471      128.54129        9.07054
N         52.97092      129.64997        9.18064
H         54.86313      124.31705       10.91316
H         57.56203      125.33366       10.56276
H         56.71279      127.24448       11.99859
H         55.23542      126.27111       12.34984
H         54.81958      126.16034        9.80268
H         56.25711      127.20761        9.57163
H         55.06729      129.02164       10.86731
H         53.67799      127.89172       11.13103
H         53.38294      127.66207        8.63987
H         54.73767      128.82222        8.37597
H         52.59776      129.87005        8.22855
H         52.17286      129.37916        9.80010
H         53.45149      130.49544        9.56338
N         57.31905      123.54915       13.27027
C         57.99250      123.16867       14.50907
C         59.47678      122.90839       14.24935
O         59.79337      122.03733       13.45190
C         57.27680      121.93054       15.10230
C         57.58249      121.67390       16.55270
O         58.70400      121.39029       16.91988
O         56.59038      121.72417       17.46103
H         56.57554      122.93376       12.91381
H         57.85432      124.00081       15.23523
H         57.48827      121.03107       14.48362
H         56.18144      122.11781       15.06054
N         60.44121      123.64623       14.87583
C         61.88075      123.48081       14.66606
C         62.47925      122.19343       15.22268
O         63.69026      122.04276       15.14763
H         60.14186      124.40444       15.50557
H         62.39973      124.31167       15.19231
H         62.11526      123.57090       13.58314
N         61.70917      121.22909       15.79337
C         62.20050      119.98897       16.37782
C         61.70943      118.79107       15.57122
O         61.89164      117.66972       16.02628
C         61.67428      119.88831       17.83096
C         62.06004      121.08806       18.70824
N         63.48916      121.11601       19.00210
O         61.34303      121.03671       19.90547
H         60.70038      121.35866       15.81346
H         63.31056      119.94784       16.39084
H         62.02606      118.95219       18.31838
H         60.56498      119.84516       17.79150
H         64.02275      121.26770       18.11860
H         63.67772      121.94377       19.61272
N         61.10704      118.93740       14.34986
C         60.60518      117.80636       13.58663
C         59.34824      117.20622       14.18860
O         58.94504      116.14074       13.74303
H         61.02894      119.86596       13.91621
H         61.41191      117.04595       13.51115
H         60.34892      118.13030       12.55451
N         58.64655      117.85370       15.16186
C         57.43796      117.34251       15.79287
C         57.66096      117.30103       17.28950
O         58.08860      118.29796       17.85740
C         56.24912      118.27967       15.50122
C         55.00935      117.84689       16.25730
C         54.24545      116.74222       15.84268
C         54.63437      118.53956       17.42130
C         53.11970      116.34830       16.57888
C         53.52481      118.13396       18.16313
C         52.76014      117.03811       17.74333
O         51.68721      116.63663       18.45448
H         58.96742      118.78207       15.47639
H         57.16901      116.33081       15.41406
H         56.03253      118.34936       14.41283
H         56.53777      119.29115       15.84057
H         54.51549      116.19147       14.95034
H         55.21904      119.37973       17.77184
H         52.53055      115.50089       16.25089
H         53.26601      118.66961       19.06765
H         51.41895      117.07989       19.27260
N         57.29946      116.20904       18.00837
C         57.41071      116.15432       19.46099
C         58.88108      116.14350       19.82593
O         59.30234      116.99941       20.58941
C         56.59780      114.95498       20.03014
C         55.09272      115.16698       19.67988
C         56.77316      114.85080       21.55930
C         54.17860      114.00166       20.04722
H         56.89207      115.40726       17.50224
H         56.94234      117.06554       19.90407
H         56.96776      114.01588       19.56296
H         54.97257      115.31035       18.58844
H         54.71820      116.08916       20.17883
H         57.83670      114.71079       21.83031
H         56.40500      115.77132       22.06148
H         56.22738      113.97628       21.96560
H         54.50656      113.08173       19.52009
H         54.15711      113.82416       21.13992
H         53.14242      114.24325       19.72511
N         59.74015      115.25889       19.24218
C         61.17854      115.32914       19.47567
C         61.56260      114.89522       20.87768
O         62.65410      115.24396       21.30620
C         61.95274      114.50708       18.43531
O         61.62157      113.14968       18.54056
H         59.36987      114.59329       18.54714
H         61.48544      116.39065       19.33292
H         63.04558      114.64361       18.60062
H         61.68945      114.88092       17.41983
H         62.16390      112.68234       17.85332
N         60.74357      114.10238       21.63491
C         61.07089      113.62813       22.97506
C         61.14254      114.75031       24.00312
O         61.55114      114.47697       25.12195
C         62.34988      112.77166       22.95796
H         59.85054      113.78092       21.23549
H         60.25903      112.94868       23.31864
H         63.25039      113.35598       22.68621
H         62.52577      112.32752       23.96112
H         62.23023      111.93731       22.23410
N         60.67815      116.01013       23.73273
C         60.67041      117.07967       24.72400
C         59.25221      117.39962       25.14628
O         58.31345      117.08342       24.42917
C         61.35700      118.32583       24.16462
H         60.25609      116.21369       22.81875
H         61.21950      116.75897       25.63536
H         61.36416      119.13805       24.92264
H         62.40528      118.08929       23.88572
H         60.82022      118.68826       23.26032
N         59.03317      117.95535       26.37538
C         57.71732      118.23987       26.94215
C         56.85901      116.99020       27.14966
O         55.72671      117.14155       27.58947
C         56.96277      119.30779       26.11760
C         57.77070      120.60854       25.99065
C         56.94585      121.69106       25.35614
O         55.81941      122.11925       25.95831
O         57.29959      122.20449       24.30818
H         59.85082      118.18072       26.96180
H         57.86874      118.67774       27.95489
H         56.01302      119.53666       26.65066
H         56.70359      118.92947       25.10575
H         58.68555      120.41902       25.38640
H         58.08021      120.96322       26.99719
N         57.31343      115.72741       26.89612
C         56.47842      114.56098       27.08479
H         55.58895      114.62192       26.42203
H         57.04780      113.64201       26.82806
H         56.15096      114.49265       28.14366
H         58.27485      115.56256       26.57272
Ca        59.57506      122.43882       19.55016
O         58.56916      119.75060       20.34460
H         58.03193      119.65767       21.17032
H         57.94222      120.13556       19.68255
O         57.10443      124.69592       18.68528
H         57.22018      124.39093       17.75096
H         56.13619      124.88630       18.76652
O         59.77544      121.80067       22.50677
H         59.95833      122.64117       22.99643
H         58.83483      121.88761       22.21073
O         56.41552      122.27098       20.65926
H         56.21592      121.65990       21.41221
H         55.66097      122.14412       20.03108
O         61.08589      124.36954       18.06771
H         62.07217      124.44374       18.09986
H         60.77534      125.25311       17.74761
O         58.98251      124.95193       21.19713
H         58.51594      125.79759       20.97983
H         58.50592      124.60226       21.99136

Ca 1.0



