%chk=apoCaM-CA-Ng.loop3.water5.frame276.chk
%nprocshared=20
%mem=10GB
%nosave
#b3lyp/svp scf=(tight,noincore,xqc) Test 
#IOP(5/87=12) Density=Current Pop=(MK,readradii) iop(6/33=2) iop(6/42=6)

apoCaM-CA-Ng.loop3.water5.frame276 

   0  1 
C         30.34083       21.00703        7.23089
C         30.88203       19.81909        6.49027
O         30.22987       19.34208        5.57423
H         29.36670       20.74191        7.69235
H         31.03141       21.32870        8.04036
H         30.20020       21.85493        6.52989
N         32.07602       19.27680        6.85385
C         32.67903       18.09923        6.24284
C         31.78786       16.88030        6.42642
O         31.57016       16.12564        5.48790
C         33.08181       18.33924        4.76909
C         34.03545       19.49399        4.62170
O         33.69135       20.62490        4.92680
O         35.27221       19.28738        4.13033
H         32.59128       19.70377        7.63965
H         33.61472       17.88273        6.80779
H         32.18623       18.52791        4.14101
H         33.58187       17.42235        4.38570
N         31.27118       16.61464        7.65859
C         30.54644       15.38705        7.98511
C         29.26073       15.21562        7.17407
O         28.77482       14.09587        7.09397
C         30.26117       15.30776        9.50618
C         31.56123       15.37478       10.34205
C         31.29260       15.39359       11.85023
C         32.61160       15.58461       12.61935
N         32.38478       15.63637       14.06212
H         31.45310       17.30514        8.39925
H         31.21842       14.53974        7.71956
H         29.73615       14.35592        9.74058
H         29.59658       16.15472        9.78695
H         32.12032       16.30245       10.11528
H         32.21420       14.51228       10.08610
H         30.80134       14.44531       12.15713
H         30.61698       16.24403       12.09073
H         33.09114       16.53759       12.29803
H         33.30817       14.74955       12.38449
H         33.30108       15.78300       14.54483
H         31.74956       16.43320       14.29809
H         31.96642       14.73700       14.39197
N         28.66110       16.26299        6.53381
C         27.52363       16.10834        5.62408
C         27.99872       15.33132        4.39746
O         29.02469       15.69671        3.83962
C         26.96660       17.50597        5.25111
C         25.75660       17.43384        4.35783
O         25.85055       16.94373        3.25594
O         24.56012       17.92171        4.71491
H         29.04158       17.20912        6.67823
H         26.69681       15.56965        6.13979
H         27.75216       18.10743        4.74446
H         26.67692       18.03041        6.18752
N         27.32962       14.22927        3.94228
C         27.86247       13.35568        2.89969
C         28.15661       14.00897        1.55678
O         28.86779       13.38836        0.77984
H         26.44969       13.95056        4.40216
H         27.19115       12.48397        2.73859
H         28.82715       12.95951        3.28452
N         27.67473       15.23769        1.20955
C         28.06892       15.94801       -0.00667
C         28.74199       17.28901        0.29224
O         29.39293       17.80452       -0.60650
C         26.89020       16.13575       -0.98670
C         25.79968       17.04390       -0.46537
N         25.53782       18.22413       -1.07515
O         25.13980       16.70948        0.50578
H         27.01209       15.67777        1.83716
H         28.82816       15.33764       -0.54159
H         26.44962       15.14840       -1.24407
H         27.30107       16.56630       -1.92621
H         26.07909       18.53026       -1.89641
H         24.79571       18.84323       -0.72046
N         28.60570       17.94130        1.48798
C         29.28106       19.19164        1.79695
C         28.33417       20.36443        1.71476
O         27.80968       20.60696        0.63776
H         27.99154       17.56585        2.21694
H         30.09606       19.39503        1.07113
H         29.75892       19.10362        2.79668
N         28.10589       21.16938        2.79354
C         27.31060       22.39789        2.71925
C         26.05818       22.30188        3.56572
O         25.87764       21.32428        4.27658
C         28.18983       23.58674        3.16591
C         29.30687       23.84274        2.18287
C         30.64904       23.60441        2.52531
C         29.00384       24.33943        0.90394
C         31.66746       23.85097        1.59627
C         30.02209       24.59478       -0.01727
C         31.35571       24.34938        0.32182
O         32.32486       24.59683       -0.58261
H         28.54138       20.92690        3.69704
H         26.95025       22.57004        1.68247
H         28.59426       23.35824        4.17778
H         27.59998       24.52455        3.25345
H         30.90823       23.21987        3.50395
H         27.97705       24.54050        0.62465
H         32.69765       23.65617        1.86718
H         29.77267       24.98511       -0.99603
H         33.26058       24.43934       -0.39293
N         25.10892       23.28505        3.47307
C         23.83602       23.24098        4.18434
C         22.71341       23.08291        3.16712
O         22.02031       22.08109        3.24521
C         23.65440       24.47739        5.11387
C         24.86601       24.59343        6.07910
C         22.34399       24.34210        5.92047
C         24.78542       25.76713        7.05880
H         25.27823       24.07955        2.83833
H         23.80743       22.34700        4.84693
H         23.60122       25.39720        4.48937
H         25.79337       24.72720        5.48190
H         24.96588       23.65537        6.66818
H         22.39141       23.46626        6.60108
H         22.14008       25.25672        6.51260
H         21.47123       24.19989        5.26606
H         23.93338       25.65150        7.75957
H         25.70951       25.79389        7.67383
H         24.69002       26.72769        6.51118
N         22.48459       23.97791        2.15819
C         21.43685       23.73968        1.16012
C         20.03055       23.81482        1.74578
O         19.11310       23.33902        1.09377
C         21.54521       24.70155       -0.03125
O         22.79762       24.55609       -0.64253
H         23.10148       24.79982        2.06396
H         21.58867       22.70966        0.76250
H         21.41312       25.75030        0.31464
H         20.74534       24.44886       -0.76686
H         22.74870       25.05853       -1.49719
N         19.78447       24.39636        2.95872
C         18.46851       24.46768        3.59414
C         17.89845       23.09775        3.94569
O         16.74492       23.05209        4.36149
C         17.48935       25.28191        2.73298
H         20.56053       24.84430        3.45592
H         18.56893       25.02684        4.55139
H         16.52859       25.41679        3.27642
H         17.90954       26.29081        2.53634
H         17.26544       24.78744        1.76747
N         18.63337       21.94804        3.86448
C         18.08873       20.63036        4.16338
C         18.69196       20.04500        5.42496
O         19.66272       20.57996        5.94823
C         18.32627       19.70030        2.96844
H         19.62501       21.99520        3.59960
H         16.99418       20.70575        4.34194
H         17.85248       20.12407        2.05767
H         19.41684       19.59285        2.77565
H         17.90058       18.69255        3.15432
N         18.09285       18.96689        6.00989
C         18.52397       18.30502        7.24142
C         18.51961       19.20251        8.48063
O         18.85469       18.69499        9.54358
C         19.90314       17.63230        7.06666
C         19.89418       16.58816        5.93904
C         21.21103       15.87008        5.86006
O         21.86206       15.89002        4.82999
O         21.66929       15.17676        6.91987
H         17.25159       18.57923        5.55310
H         17.79882       17.48786        7.45606
H         20.15753       17.10563        8.01322
H         20.68671       18.39529        6.88790
H         19.67194       17.08105        4.96683
H         19.10432       15.83263        6.13921
N         18.15271       20.51640        8.45956
C         18.19944       21.33575        9.65154
H         17.88348       22.37333        9.41290
H         17.51911       20.92136       10.42490
H         19.23744       21.36638       10.04828
H         17.83073       20.96907        7.59593
Ca        23.08594       17.65312        3.00277
O         24.27419       20.17983        1.87854
H         25.04649       19.57045        1.76474
H         24.17643       20.62856        1.00176
O         22.15853       18.42777       -0.11393
H         22.35380       18.89389       -0.96528
H         21.30380       17.95835       -0.28226
O         23.84189       14.58018        2.41755
H         23.83846       13.78159        1.83239
H         23.95797       14.21898        3.33206
O         21.70897       19.61517        4.38297
H         21.70443       18.77673        4.90474
H         22.64360       19.93357        4.44474
O         20.75142       16.04097        1.86877
H         20.90245       15.76777        0.92912
H         19.88262       16.51567        1.85521

Ca 1.0



