%chk=apoCaM-CA-Ng.loop3.water4.frame201.chk
%nprocshared=20
%mem=10GB
%nosave
#b3lyp/svp scf=(tight,noincore,xqc) Test 
#IOP(5/87=12) Density=Current Pop=(MK,readradii) iop(6/33=2) iop(6/42=6)

apoCaM-CA-Ng.loop3.water4.frame201 

   0  1 
C         17.37641       39.11663        7.05024
C         18.21760       39.56387        5.88371
O         18.50742       40.73859        5.75612
H         16.40950       38.71881        6.66786
H         17.89541       38.30992        7.60593
H         17.15547       39.94812        7.75171
N         18.61152       38.65004        4.95988
C         19.31246       38.93294        3.70431
C         18.49073       39.85395        2.80490
O         19.04849       40.64948        2.06052
C         20.75792       39.44863        3.89248
C         21.58034       38.66709        4.87753
O         22.75381       39.17473        5.28950
O         21.21816       37.57877        5.29501
H         18.34930       37.66804        5.13169
H         19.38713       37.95660        3.18143
H         20.73893       40.51054        4.21307
H         21.29053       39.40517        2.91504
N         17.13292       39.79982        2.85454
C         16.22751       40.57264        2.01374
C         15.46295       41.55880        2.86617
O         14.36815       41.96063        2.49049
C         15.22033       39.58095        1.40398
C         15.91855       38.48360        0.60941
C         14.90018       37.48398        0.07225
C         15.62589       36.31960       -0.60090
N         14.67558       35.30815       -1.05229
H         16.68994       39.17156        3.54181
H         16.75610       41.12169        1.20246
H         14.49745       40.11604        0.75068
H         14.64975       39.10361        2.23650
H         16.61574       37.93853        1.28270
H         16.49871       38.93234       -0.22517
H         14.22570       37.99003       -0.65445
H         14.28757       37.09021        0.91340
H         16.33234       35.85259        0.12325
H         16.21027       36.70535       -1.46491
H         14.21836       34.86051       -0.22420
H         13.94895       35.74208       -1.66600
H         15.19178       34.57725       -1.59176
N         15.95201       41.93705        4.07741
C         15.15808       42.66700        5.03663
C         14.74870       44.00338        4.46950
O         15.54911       44.65815        3.81731
C         15.87821       42.79431        6.39870
C         14.90800       43.33355        7.41572
O         13.91128       42.68053        7.67706
O         15.00028       44.57707        7.91518
H         16.89751       41.65520        4.34665
H         14.24955       42.05476        5.22679
H         16.79991       43.40654        6.30594
H         16.16980       41.78117        6.74751
N         13.48237       44.45192        4.66537
C         12.98418       45.69764        4.11500
C         13.83195       46.91443        4.45744
O         13.78345       47.85985        3.68485
H         12.83385       43.86414        5.20837
H         11.93026       45.85991        4.42843
H         12.96721       45.59233        3.01060
N         14.62209       46.98337        5.57354
C         15.50087       48.12047        5.85928
C         16.95804       47.70839        6.12971
O         17.72347       48.54933        6.58136
C         14.92813       48.99180        6.99387
C         14.98123       48.35345        8.34735
N         16.01645       48.61316        9.17843
O         14.07413       47.62545        8.70985
H         14.58387       46.21822        6.25559
H         15.52995       48.81034        4.98953
H         13.88912       49.31816        6.76430
H         15.52521       49.92910        7.03847
H         16.79343       49.22155        8.88559
H         16.05367       48.20287       10.11649
N         17.44098       46.46940        5.81814
C         18.83739       46.09339        6.00093
C         19.16643       45.68805        7.42432
O         20.33444       45.46509        7.70922
H         16.83072       45.79275        5.36004
H         19.48816       46.92914        5.66402
H         19.07219       45.21863        5.35467
N         18.18600       45.51035        8.35366
C         18.41937       45.04806        9.71732
C         17.40452       45.64537       10.66814
O         16.25600       45.84370       10.29974
C         18.30189       43.51630        9.80296
C         19.54554       42.82934        9.31779
C         20.61878       42.63500       10.20345
C         19.64763       42.36808        8.00301
C         21.77188       41.97702        9.77950
C         20.80881       41.71349        7.57450
C         21.87272       41.51485        8.46863
O         23.00062       40.88894        8.08709
H         17.21100       45.61798        8.05313
H         19.42695       45.36120       10.07263
H         17.39620       43.16324        9.26341
H         18.16777       43.19672       10.86139
H         20.56018       42.98606       11.22595
H         18.82790       42.53005        7.32089
H         22.59186       41.82479       10.46906
H         20.88130       41.36201        6.55413
H         23.13313       40.57807        7.18554
N         17.74738       45.80589       11.97523
C         16.82349       46.26986       13.00050
C         16.63909       47.78102       12.88219
O         15.53448       48.21951       12.62627
C         17.33369       45.85623       14.41132
C         17.56030       44.32227       14.56405
C         16.39048       46.36656       15.51219
C         16.31147       43.44904       14.41999
H         18.69639       45.51994       12.25640
H         15.84308       45.76294       12.85546
H         18.32683       46.32867       14.57229
H         17.99024       44.13779       15.57171
H         18.31040       43.96482       13.82757
H         15.35230       46.00886       15.36145
H         16.75881       46.05653       16.51149
H         16.35058       47.46293       15.50595
H         15.53573       43.72724       15.16063
H         15.89159       43.52635       13.40073
H         16.58794       42.38761       14.59901
N         17.68139       48.64512       13.03186
C         17.53270       50.09458       12.85357
C         16.72692       50.77842       13.95911
O         16.10725       51.79647       13.68229
C         18.89792       50.75757       12.72159
O         19.54880       50.27817       11.57323
H         18.61646       48.24973       13.21017
H         16.99914       50.26412       11.88961
H         19.49986       50.57352       13.64169
H         18.77376       51.85443       12.61049
H         20.16512       49.55596       11.85923
N         16.62981       50.23332       15.20601
C         15.71775       50.67676       16.26382
C         14.29792       50.87132       15.73003
O         13.59564       51.77943       16.15501
C         16.26732       51.89225       17.02141
H         17.17563       49.38732       15.39738
H         15.68490       49.85065       17.00755
H         16.21008       52.81878       16.41429
H         15.69442       52.03858       17.96446
H         17.32755       51.70758       17.29899
N         13.87066       50.09097       14.69737
C         12.61651       50.25006       13.98420
C         11.85902       48.93539       13.94316
O         12.41049       47.89331       14.26799
C         12.91604       50.76830       12.56798
H         14.50362       49.36760       14.35045
H         11.96990       50.99624       14.49490
H         13.68597       50.14172       12.06678
H         12.00739       50.78964       11.93107
H         13.31508       51.80453       12.63542
N         10.52780       48.95747       13.65018
C          9.60814       47.81975       13.69744
C          9.75789       47.05963       15.01242
O          9.70623       45.83599       15.01722
C          9.74884       46.88502       12.47441
C          9.97270       47.65017       11.16218
C         10.25918       46.70032       10.04171
O         11.20445       45.73912       10.20288
O          9.57617       46.73151        9.02983
H         10.10116       49.87756       13.46499
H          8.58706       48.25346       13.63992
H          8.85201       46.22982       12.39926
H         10.60332       46.21135       12.63369
H         10.87940       48.28344       11.24989
H          9.10319       48.30994       10.93931
N         10.03003       47.73697       16.16391
C         10.37107       47.08583       17.41194
H         11.32768       47.50981       17.78863
H          9.57605       47.27371       18.15944
H         10.52211       45.99168       17.29150
H         10.05688       48.76707       16.15259
Ca        13.10601       45.12270        9.06742
O         11.82261       45.52723        6.87848
H         11.45089       44.61079        6.91848
H         11.14055       46.09659        7.30296
O         15.02536       43.16152       10.65703
H         15.60844       42.69732       11.30381
H         14.97060       42.51928        9.91031
O         11.81573       42.91449       10.29248
H         12.03041       41.95967       10.14983
H         10.83129       42.97129       10.20443
O         13.41515       46.10270       11.84057
H         13.83566       46.98651       11.76183
H         12.66205       46.28285       12.44278

Ca 1.0



