%chk=apoCaM-CA-Ng.loop1.water2.frame1110.chk
%nprocshared=20
%mem=10GB
%nosave
#b3lyp/svp scf=(tight,noincore,xqc) Test 
#IOP(5/87=12) Density=Current Pop=(MK,readradii) iop(6/33=2) iop(6/42=6)

apoCaM-CA-Ng.loop1.water2.frame1110 

   0  1 
C         52.75861       85.13435       81.66950
C         52.43927       83.90384       80.86990
O         52.81658       83.85157       79.70780
H         53.85779       85.28970       81.68431
H         52.27447       86.01981       81.20529
H         52.40065       85.04518       82.71641
N         51.73867       82.87220       81.42833
C         51.41728       81.63378       80.71678
C         50.07184       81.72206       79.99846
O         49.21270       80.87095       80.18631
C         51.50481       80.42098       81.67786
C         50.50893       80.42992       82.82040
O         49.69619       81.33206       82.95785
O         50.51133       79.41276       83.70117
H         51.46014       82.96382       82.41545
H         52.18575       81.46853       79.93190
H         52.52773       80.38302       82.10912
H         51.34615       79.49005       81.09119
N         49.83164       82.74140       79.13473
C         48.59495       82.89446       78.37722
C         48.41827       81.74900       77.38286
O         47.37047       81.12159       77.43634
C         48.51664       84.29880       77.72614
C         48.52377       85.37169       78.83715
C         48.48137       86.80637       78.31307
C         48.53040       87.78075       79.50328
N         48.53745       89.17140       79.05829
H         50.56197       83.45147       79.01343
H         47.73461       82.86247       79.08472
H         47.56752       84.38728       77.15293
H         49.35693       84.47293       77.02426
H         49.44524       85.27665       79.44752
H         47.64907       85.20454       79.50425
H         47.55158       86.96929       77.72610
H         49.36104       86.98249       77.65628
H         49.45076       87.59045       80.10133
H         47.64902       87.60897       80.16155
H         48.57378       89.79394       79.89812
H         49.38105       89.35272       78.46748
H         47.66824       89.38005       78.51650
N         49.37236       81.33306       76.49398
C         50.70701       81.89935       76.34669
C         51.75575       80.95362       76.93355
O         51.40754       79.88986       77.42934
C         50.97614       82.25978       74.87545
C         51.00162       81.06246       73.97888
O         51.80383       80.02977       74.28607
O         50.35137       81.04817       72.94759
H         49.15409       80.49956       75.92366
H         50.80669       82.83962       76.90227
H         51.96831       82.74841       74.80545
H         50.22553       82.99529       74.51061
N         53.06904       81.31548       76.94997
C         54.12342       80.54131       77.58952
C         54.42015       79.19770       76.95351
O         53.78073       78.80639       75.99063
H         53.33593       82.22798       76.55178
H         53.87152       80.38880       78.65944
H         55.06201       81.13463       77.54004
N         55.45839       78.46509       77.45704
C         55.92863       77.18021       76.92120
C         57.35689       76.88674       77.41382
O         57.72807       77.37763       78.47021
C         55.02833       76.00745       77.38311
C         53.62264       76.06196       76.86938
O         53.40309       76.01133       75.66945
O         52.59357       76.12079       77.73589
H         55.98788       78.90910       78.22118
H         55.95012       77.25916       75.81802
H         55.01239       75.98855       78.49534
H         55.45290       75.04116       77.04364
N         58.22864       76.05930       76.75687
C         57.98930       75.40895       75.47889
C         57.92780       76.38999       74.33521
O         58.09020       77.58472       74.54524
H         59.14160       75.87507       77.20245
H         57.06191       74.80550       75.52298
H         58.83182       74.71663       75.26248
N         57.69574       75.93796       73.07147
C         57.57250       76.84201       71.93000
C         56.43330       77.82835       72.12344
O         55.52271       77.56560       72.89674
C         57.42054       76.09616       70.57582
C         56.28935       75.05439       70.55144
O         58.63105       75.45945       70.25985
H         57.61002       74.92132       72.93805
H         58.50893       77.44184       71.87868
H         57.19912       76.87328       69.80281
H         58.73868       75.51663       69.27300
H         56.21508       74.61175       69.53793
H         56.49366       74.20870       71.23875
H         55.31537       75.51072       70.81678
N         56.48838       79.03521       71.48321
C         55.51173       80.11267       71.60970
C         54.17258       79.76152       70.91099
O         53.82639       78.41088       70.99454
C         55.27545       80.57239       73.08437
C         56.58395       80.81083       73.88218
C         54.39469       81.83855       73.11734
C         57.52476       81.86838       73.30087
H         57.31047       79.22973       70.89168
H         55.93443       81.00061       71.09141
H         54.72439       79.77950       73.62962
H         57.14340       79.85883       73.95064
H         56.31993       81.10745       74.92195
H         53.41237       81.65244       72.63829
H         54.21249       82.15258       74.16588
H         54.87396       82.67977       72.57490
H         57.04013       82.86456       73.26392
H         58.42176       81.95018       73.95042
H         57.86297       81.57966       72.28504
N         54.02951       80.27842       69.54817
C         52.59433       80.29414       69.16943
C         52.16153       78.98816       68.50161
O         50.97670       78.83228       68.23933
C         52.28638       81.50203       68.23392
C         53.12823       81.47163       66.95102
O         52.54189       82.71232       68.90191
H         54.37169       81.26524       69.58762
H         51.96146       80.42803       70.08004
H         51.21384       81.48370       67.93128
H         51.83433       82.81950       69.59021
H         52.88092       82.35046       66.31881
H         54.21323       81.51363       67.18713
H         52.92582       80.55035       66.36667
N         53.06905       78.03881       68.13482
C         52.71534       76.85331       67.35754
C         51.99971       75.79764       68.19751
O         52.58774       75.29185       69.14261
C         53.98494       76.24176       66.70687
C         54.63637       77.22490       65.71868
O         54.91130       75.88650       67.70022
H         54.06619       78.22044       68.31437
H         52.05875       77.16431       66.51389
H         53.67550       75.33270       66.14077
H         55.61725       75.34655       67.25831
H         55.52128       76.75200       65.24331
H         53.91649       77.50073       64.91978
H         54.97639       78.15179       66.22644
N         50.74035       75.37758       67.86386
C         50.04234       74.25685       68.49894
C         49.83887       74.47046       69.99168
O         50.40622       73.73490       70.78922
C         50.74808       72.90873       68.20995
C         50.80619       72.57510       66.71068
C         51.30514       71.13408       66.50474
C         51.30669       70.68850       65.03315
N         52.28669       71.41875       64.22914
H         50.25836       75.84296       67.07995
H         49.02809       74.16268       68.04889
H         50.14809       72.11474       68.70924
H         51.77329       72.88700       68.63836
H         51.46714       73.30559       66.19870
H         49.78346       72.65123       66.28032
H         50.61512       70.45192       67.04953
H         52.32278       71.01073       66.93460
H         50.28961       70.80951       64.59777
H         51.56140       69.60553       65.00241
H         52.28009       71.03217       63.25755
H         52.04737       72.43382       64.18106
H         53.24354       71.29370       64.63267
N         48.99199       75.44109       70.43618
C         48.75066       75.69974       71.85584
C         49.18475       77.10818       72.22293
O         50.08726       77.19823       73.04004
C         47.29897       75.40543       72.30264
C         46.94929       73.91370       72.20980
C         45.56857       73.65882       72.74841
O         45.39859       72.86219       73.82143
O         44.59553       74.17299       72.21989
H         48.50983       76.00483       69.72551
H         49.37942       75.01819       72.47403
H         46.55218       75.98603       71.73396
H         47.20872       75.69872       73.37320
H         47.67935       73.33044       72.81342
H         47.00248       73.56627       71.15650
N         48.65377       78.26883       71.73168
C         47.58098       78.42351       70.77133
H         46.75613       78.99750       71.24293
H         47.95707       78.99440       69.89733
H         47.16153       77.48403       70.39661
H         49.05206       79.15003       72.08166
Ca        52.45448       78.58871       72.73680
O         50.07836       77.13560       75.90463
H         50.21730       76.17116       75.72710
H         50.97878       77.47896       76.12935
O         53.05257       75.32480       72.51338
H         52.98365       75.92385       71.72894
H         52.16745       74.88529       72.56468

Ca 1.0



