%chk=apoCaM-CA-Ng.loop3.water3.frame776.chk
%nprocshared=20
%mem=10GB
%nosave
#b3lyp/svp scf=(tight,noincore,xqc) Test 
#IOP(5/87=12) Density=Current Pop=(MK,readradii) iop(6/33=2) iop(6/42=6)

apoCaM-CA-Ng.loop3.water3.frame776 

   0  1 
C        101.93232       79.83663      -12.22521
C        102.35168       78.64948      -13.04436
O        103.46238       78.64297      -13.55244
H        100.91285       79.70234      -11.80428
H        102.63764       79.95874      -11.37521
H        101.94545       80.75415      -12.84648
N        101.52563       77.57564      -13.16886
C        101.93350       76.32785      -13.81520
C        102.03532       76.49965      -15.33781
O        101.50943       77.47995      -15.84735
C        100.92943       75.23224      -13.36295
C        101.38168       73.80301      -13.40334
O        100.64906       72.94616      -12.93645
O        102.59218       73.44171      -13.85246
H        100.61293       77.61787      -12.68729
H        102.91923       76.06469      -13.40203
H         99.96305       75.36123      -13.89778
H        100.73476       75.39111      -12.27851
N        102.68488       75.58909      -16.12884
C        102.69137       75.64656      -17.59597
C        101.92000       74.48371      -18.20979
O        101.61860       74.56010      -19.39336
C        104.11863       75.65233      -18.18423
C        104.87576       76.97186      -17.99122
C        106.20629       76.91988      -18.76570
C        106.91335       78.27997      -18.79862
N        108.13021       78.21173      -19.61063
H        103.16852       74.80565      -15.67834
H        102.15559       76.55682      -17.94286
H        104.02723       75.51345      -19.28494
H        104.70303       74.79508      -17.78366
H        105.05205       77.18264      -16.91488
H        104.25247       77.78770      -18.41838
H        105.99760       76.63152      -19.82006
H        106.87365       76.15130      -18.31685
H        107.16855       78.60173      -17.76568
H        106.22822       79.03476      -19.24616
H        108.57572       79.15689      -19.64532
H        108.80566       77.53067      -19.19431
H        107.89636       77.91916      -20.58816
N        101.55556       73.38923      -17.48746
C        100.70212       72.32667      -18.00044
C         99.42700       72.28541      -17.16682
O         98.35384       72.34357      -17.75126
C        101.47947       70.99656      -18.16335
C        102.22910       70.47129      -16.97444
O        101.57355       70.02068      -15.90047
O        103.44413       70.36053      -17.01891
H        101.87377       73.30209      -16.51710
H        100.37305       72.54934      -19.04093
H        102.23160       71.17046      -18.96504
H        100.78753       70.20631      -18.52712
N         99.46385       72.31011      -15.80175
C         98.27485       72.42184      -14.96041
C         98.14239       71.28999      -13.95956
O         97.11731       71.22403      -13.29711
H        100.37779       72.31334      -15.33908
H         97.35675       72.43040      -15.58520
H         98.30557       73.38529      -14.40694
N         99.12104       70.35415      -13.80670
C         99.00298       69.15113      -13.00397
C        100.10753       69.06836      -11.96797
O        101.27406       69.14074      -12.32842
C         99.15685       67.93024      -13.93357
C         98.13943       67.92001      -15.04452
N         98.53525       67.97721      -16.33879
O         96.94951       67.85629      -14.77557
H         99.98928       70.45043      -14.32805
H         98.00783       69.09249      -12.51019
H         99.05571       66.99496      -13.34191
H        100.17774       67.94135      -14.37734
H         99.53440       68.03535      -16.58630
H         97.84134       67.96587      -17.10017
N         99.80947       68.79735      -10.66940
C        100.82091       68.44047       -9.69027
C        101.77472       69.55985       -9.36429
O        101.33225       70.59221       -8.88044
H         98.82108       68.72384      -10.38501
H        101.37446       67.55014      -10.06153
H        100.31698       68.14366       -8.74577
N        103.12060       69.38829       -9.53170
C        104.10063       70.37062       -9.07154
C        103.98892       71.68105       -9.83122
O        103.20279       71.76783      -10.76420
C        105.54736       69.82565       -9.18837
C        105.73834       68.46942       -8.54237
C        105.40657       68.24874       -7.19357
C        106.26175       67.40532       -9.29847
C        105.58179       66.98397       -6.62049
C        106.44720       66.14696       -8.72027
C        106.10424       65.92904       -7.38312
O        106.28084       64.70556       -6.84439
H        103.45567       68.49601       -9.92618
H        103.89443       70.56788       -7.99671
H        106.24465       70.53737       -8.69807
H        105.82774       69.76829      -10.26375
H        105.00330       69.04806       -6.58607
H        106.53468       67.54891      -10.33659
H        105.31159       66.82482       -5.58414
H        106.85684       65.33963       -9.31454
H        106.05077       64.50867       -5.92525
N        104.74751       72.75605       -9.45725
C        104.72137       74.07147      -10.09719
C        105.28509       73.98809      -11.51650
O        104.89597       73.10274      -12.26003
C        103.29906       74.71736      -10.06495
C        103.32537       76.21315      -10.48677
C        102.61342       74.56335       -8.69328
C        104.03917       77.16845       -9.52254
H        105.36906       72.65299       -8.64072
H        105.38956       74.72417       -9.49968
H        102.65857       74.18323      -10.79832
H        102.27747       76.56938      -10.59000
H        103.82050       76.30844      -11.46884
H        102.46732       73.49327       -8.44067
H        103.21478       75.02439       -7.88394
H        101.60619       75.03222       -8.71611
H        103.98721       78.19947       -9.93051
H        103.54594       77.17829       -8.52946
H        105.10904       76.90973       -9.40172
N        106.17378       74.91579      -11.97852
C        106.72544       74.87730      -13.33664
C        108.24219       75.02999      -13.37961
O        108.79006       74.99741      -14.47529
C        106.06940       75.97675      -14.17974
O        106.33903       77.23811      -13.63418
H        106.40094       75.71717      -11.37212
H        106.48520       73.90891      -13.82176
H        104.97661       75.79757      -14.19601
H        106.44940       75.92414      -15.22483
H        105.87483       77.89143      -14.21818
N        108.99063       75.23407      -12.25892
C        110.43047       75.48183      -12.30230
C        111.20380       74.26647      -12.80477
O        110.62659       73.18835      -12.83672
C        110.89893       75.82629      -10.88369
H        108.52342       75.26639      -11.34219
H        110.60330       76.35223      -12.96753
H        111.97576       76.01288      -10.83935
H        110.36892       76.73272      -10.52033
H        110.68200       74.98368      -10.19250
N        112.52110       74.30741      -13.18194
C        113.32458       75.51493      -13.39620
C        114.81187       75.17008      -13.42192
O        115.17443       74.23929      -14.12906
C        112.97029       76.14348      -14.74867
H        112.94862       73.40385      -13.44107
H        113.11951       76.27285      -12.63002
H        111.90414       76.43588      -14.79534
H        113.58357       77.05860      -14.90520
H        113.17677       75.43360      -15.57801
N        115.77072       75.88449      -12.75953
C        115.54100       77.09154      -11.97134
C        114.78934       76.77163      -10.69760
O        113.81582       77.44948      -10.40147
C        116.88456       77.79431      -11.67658
C        116.68426       79.19166      -11.06317
C        117.98811       79.92938      -10.95225
O        118.64011       80.17836      -11.95473
O        118.43105       80.34608       -9.75142
H        116.74953       75.58149      -12.89297
H        114.96274       77.81373      -12.59140
H        117.40368       77.92992      -12.65195
H        117.52979       77.16792      -11.02201
H        116.21589       79.10064      -10.06000
H        116.01088       79.79315      -11.71289
N        115.16708       75.72772       -9.90984
C        114.41911       75.34216       -8.73244
H        113.37398       75.08978       -9.01463
H        114.87741       74.44222       -8.27008
H        114.41330       76.16832       -7.99192
H        115.98645       75.16072      -10.17523
Ca       103.11928       71.24944      -13.74974
O        105.95355       70.47976      -13.60716
H        106.69245       71.10235      -13.82262
H        106.25318       69.60309      -13.95552
O        103.59631       68.17878      -13.97715
H        102.88435       67.75997      -14.52309
H        103.46232       67.81050      -13.06775
O        105.02942       72.75371      -15.61043
H        104.24934       72.68119      -16.21316
H        105.74280       73.14346      -16.17429

Ca 1.0



