%chk=apoCaM-CA-Ng.loop4.water5.frame1030.chk
%nprocshared=20
%mem=10GB
%nosave
#b3lyp/svp scf=(tight,noincore,xqc) Test 
#IOP(5/87=12) Density=Current Pop=(MK,readradii) iop(6/33=2) iop(6/42=6)

apoCaM-CA-Ng.loop4.water5.frame1030 

   -3  1 
C         19.62697       56.85918       38.00854
C         20.74845       56.58982       37.04318
O         21.89217       56.56807       37.47147
H         18.93177       55.99304       38.02699
H         20.02265       57.00980       39.03603
H         19.07801       57.77575       37.70958
N         20.53404       56.32832       35.72246
C         19.21507       56.20700       35.11151
C         18.76105       54.75295       35.09317
O         17.66023       54.49027       34.62684
C         19.24016       56.77064       33.67899
C         19.73722       58.18777       33.63818
O         20.73552       58.46649       32.99405
O         19.08380       59.15667       34.30614
H         21.35180       56.08706       35.14553
H         18.46596       56.78376       35.69352
H         18.21825       56.73986       33.24449
H         19.89191       56.12991       33.04991
N         19.53555       53.75475       35.61666
C         19.10238       52.36489       35.69515
C         18.95731       51.68614       34.33871
O         18.44546       50.57684       34.32717
C         20.07257       51.50816       36.57542
C         21.50646       51.44704       35.96744
C         20.07505       52.01736       38.02961
C         22.43528       50.46876       36.68352
H         20.43850       53.99983       36.03743
H         18.10103       52.35518       36.18361
H         19.66592       50.47216       36.60316
H         21.98654       52.44734       35.96791
H         21.44386       51.10316       34.91361
H         19.03801       52.02671       38.42789
H         20.66555       51.34691       38.68524
H         20.49292       53.04212       38.10671
H         22.00282       49.44613       36.66201
H         23.41543       50.44914       36.16109
H         22.61771       50.77538       37.73245
N         19.40878       52.24087       33.16967
C         19.35618       51.49148       31.91011
C         19.69548       52.36096       30.69984
O         20.17027       53.47559       30.84759
C         20.35094       50.29679       32.00159
C         20.29964       49.35387       30.83568
O         21.28857       49.18089       30.14117
O         19.16889       48.67326       30.56807
H         19.81125       53.18614       33.18495
H         18.30832       51.14401       31.77397
H         20.15209       49.68035       32.89971
H         21.38022       50.70680       32.10779
N         19.43407       51.89367       29.44414
C         19.75648       52.62015       28.22881
C         21.24501       52.68374       27.98080
O         22.02551       52.20039       28.79131
H         18.95531       50.98980       29.33434
H         19.30917       53.63659       28.25612
H         19.31622       52.07058       27.36793
N         21.70885       53.24606       26.82849
C         23.13082       53.27784       26.48103
C         23.66148       51.84518       26.31983
O         22.84970       50.93192       26.24915
C         23.33160       54.09412       25.18230
C         22.82697       55.50359       25.33277
O         23.36343       56.31920       26.26073
O         21.93264       55.91634       24.61149
H         21.01825       53.65307       26.17794
H         23.66490       53.77929       27.31772
H         22.79372       53.59024       24.34847
H         24.39533       54.16385       24.90338
N         24.98843       51.51816       26.31290
C         26.07411       52.47910       26.44065
C         27.43404       51.82566       26.65935
O         27.49537       50.61106       26.78640
H         25.21306       50.51327       26.25533
H         25.87433       53.11018       27.32797
H         26.10958       53.08630       25.52788
N         28.59691       52.53963       26.77410
C         28.77376       53.98044       26.59691
C         27.84759       54.73944       27.51675
O         26.97893       55.47275       27.06255
C         28.67368       54.39834       25.10902
C         29.49947       53.49311       24.17160
C         30.93908       53.32503       24.59484
N         31.77330       54.38531       24.68158
O         31.35566       52.20753       24.86340
H         29.45110       52.00893       27.00822
H         29.81691       54.23141       26.89549
H         29.02494       55.45044       25.02560
H         27.63108       54.38179       24.74142
H         29.46234       53.90721       23.14177
H         29.01860       52.49016       24.14501
H         31.44560       55.33532       24.45881
H         32.75279       54.25194       24.97524
N         27.96864       54.55120       28.85505
C         27.02242       55.05292       29.84085
C         26.52354       53.87921       30.68830
O         26.94429       52.74933       30.47685
C         27.66362       56.19865       30.68231
C         27.89048       57.44629       29.81557
C         28.98539       55.79627       31.34476
H         28.75764       53.97807       29.19399
H         26.12281       55.48303       29.34609
H         26.95121       56.49790       31.47964
H         26.92995       57.78463       29.37100
H         28.28914       58.27789       30.43579
H         28.61045       57.23793       28.99610
H         29.35203       56.62011       31.99426
H         28.84663       54.89816       31.96496
H         29.76672       55.57780       30.58757
N         25.62126       54.09054       31.68291
C         25.11637       53.05165       32.58340
C         25.63111       53.30881       33.99666
O         25.05613       52.81709       34.95817
C         23.57308       53.06883       32.51479
C         23.01134       54.39568       32.97050
N         22.40279       55.22697       32.09629
O         23.13929       54.73713       34.13587
H         25.30241       55.05648       31.84915
H         25.45563       52.03658       32.28169
H         23.13916       52.25679       33.13773
H         23.28058       52.87145       31.46021
H         22.30614       54.97492       31.10291
H         22.05925       56.14481       32.40973
N         26.72981       54.09039       34.17630
C         27.22121       54.58663       35.44808
C         27.27220       56.10906       35.36507
O         26.89679       56.66332       34.33907
C         28.57093       53.90962       35.77936
C         29.63095       54.01656       34.70727
C         30.49111       55.12387       34.64985
C         29.78695       52.97788       33.77058
C         31.49040       55.19100       33.67101
C         30.77715       53.05164       32.78750
C         31.63496       54.15894       32.73572
O         32.59680       54.24168       31.79423
H         27.25279       54.40103       33.35174
H         26.52393       54.32112       36.27325
H         28.34356       52.82960       35.92038
H         28.97942       54.24684       36.75582
H         30.39856       55.92519       35.37017
H         29.13459       52.11360       33.79487
H         32.15430       56.04556       33.63939
H         30.87566       52.24826       32.06793
H         32.72457       53.55138       31.12742
N         27.70597       56.85908       36.41170
C         27.72313       58.31853       36.38644
C         26.89603       58.80477       37.56298
O         27.43596       59.42290       38.47045
C         29.19775       58.77580       36.40995
C         29.36921       60.28764       36.20012
C         30.82543       60.65696       36.18274
O         31.31305       61.52229       37.09184
O         31.57251       60.18157       35.34170
H         28.04262       56.38168       37.26197
H         27.27178       58.71450       35.44986
H         29.72029       58.26460       35.57096
H         29.67870       58.45601       37.36106
H         28.86366       60.85175       37.00981
H         28.91486       60.58432       35.22981
N         25.57543       58.46140       37.65028
C         24.79623       58.65894       38.86805
C         24.52218       57.31582       39.54207
O         23.92682       57.31754       40.61142
C         23.46217       59.40683       38.62980
C         23.59381       60.81561       38.03822
C         23.76388       60.80740       36.54903
O         22.77819       60.29837       35.78297
O         24.73499       61.33073       36.02782
H         25.14400       57.93660       36.87284
H         25.37773       59.25771       39.60250
H         22.99937       59.53317       39.63372
H         22.75477       58.81291       38.01801
H         24.40460       61.37347       38.55423
H         22.63952       61.35667       38.22104
N         24.93727       56.12893       39.00500
C         24.69823       54.86320       39.66167
H         25.19232       54.85525       40.65637
H         23.60720       54.69693       39.78247
H         25.11973       54.03566       39.05099
H         25.44536       56.09606       38.11118
Ca        22.73933       60.58314       33.54766
O         19.76611       62.19488       34.67931
H         19.02814       62.85173       34.74606
H         19.86100       61.83245       35.59582
O         22.40617       63.76258       33.83004
H         23.29131       64.08634       33.52660
H         22.49979       63.66601       34.81114
O         23.88626       62.03307       31.20247
H         23.89097       62.09716       30.21477
H         24.82263       61.81995       31.44412
O         20.38977       61.43729       31.28240
H         20.01979       60.54809       31.05252
H         19.68531       61.86384       31.83200
O         24.85374       58.93335       32.36913
H         24.48513       58.09568       31.99167
H         25.24354       58.66603       33.23909

Ca 1.0



