%chk=apoCaM-CA-Ng.loop2.water4.frame773.chk
%nprocshared=20
%mem=10GB
%nosave
#b3lyp/svp scf=(tight,noincore,xqc) Test 
#IOP(5/87=12) Density=Current Pop=(MK,readradii) iop(6/33=2) iop(6/42=6)

apoCaM-CA-Ng.loop2.water4.frame773 

   -2  1 
C         80.39666       90.93565       -8.97854
C         81.77369       91.44403       -9.28165
O         81.93762       92.15755      -10.26149
H         79.66862       91.30410       -9.73404
H         80.39445       89.82643       -8.99171
H         80.07873       91.29543       -7.97774
N         82.82581       91.11114       -8.47796
C         84.17799       91.60595       -8.71939
C         84.17107       93.11396       -8.56774
O         83.93954       93.59636       -7.46601
C         85.17466       90.94841       -7.73857
C         86.61571       91.32854       -7.96480
O         87.56537       90.80165       -7.16928
O         86.94087       92.09535       -8.85799
H         82.65075       90.48329       -7.67762
H         84.46691       91.31329       -9.75350
H         85.09839       89.84492       -7.84684
H         84.89567       91.21186       -6.69449
N         84.32125       93.92073       -9.66028
C         84.12864       95.37127       -9.60184
C         82.72528       95.67785       -9.07725
O         81.93480       94.75167       -8.96241
C         84.34224       95.96174      -11.00710
H         84.51002       93.47743      -10.57270
H         84.87688       95.79091       -8.89377
H         84.21612       97.05724      -11.05654
H         85.37240       95.72935      -11.35139
H         83.61925       95.51265      -11.72078
N         82.30954       96.90260       -8.65685
C         83.04838       98.16062       -8.69878
C         83.42145       98.60010       -7.30021
O         83.11083       97.90426       -6.34128
C         82.18672       99.19838       -9.46371
C         80.80467       99.29011       -8.86411
O         80.64620       99.74231       -7.74155
O         79.77855       98.67905       -9.49566
H         81.36834       96.93118       -8.23579
H         84.01891       98.04877       -9.20976
H         82.08519       98.82324      -10.50554
H         82.66576      100.19913       -9.51738
N         84.15780       99.73188       -7.11358
C         84.66660      100.11566       -5.80997
C         85.72780       99.13774       -5.33457
O         86.06994       98.22228       -6.07029
H         84.39283      100.32800       -7.92098
H         83.81957      100.16531       -5.09119
H         85.13429      101.11990       -5.87898
N         86.30795       99.22930       -4.10701
C         85.98804      100.23205       -3.10127
C         85.22936       99.58911       -1.94078
O         84.98212      100.26633       -0.95384
C         87.29107      100.93617       -2.65292
C         87.99288      101.68091       -3.77558
N         89.14033      102.35355       -3.52908
O         87.53123      101.68924       -4.90730
H         86.99753       98.50499       -3.84567
H         85.31362      101.02049       -3.49461
H         87.99117      100.18534       -2.22640
H         87.04920      101.67912       -1.86255
H         89.55112      102.36818       -2.58486
H         89.61889      102.86417       -4.28710
N         84.75630       98.30641       -2.02449
C         83.93075       97.67035       -1.01201
C         82.61495       98.39447       -0.81811
O         82.31042       98.75413        0.31055
H         84.94958       97.73697       -2.85943
H         84.49179       97.60225       -0.05376
H         83.70007       96.63491       -1.34465
N         81.79574       98.66877       -1.87956
C         80.52973       99.39964       -1.74899
C         79.37211       98.68689       -2.45068
O         79.59732       97.70534       -3.14360
C         80.69708      100.82750       -2.32751
C         81.70555      101.64354       -1.51491
O         81.13353      100.77555       -3.66289
H         82.11760       98.40829       -2.82531
H         80.24981       99.48999       -0.67638
H         79.73344      101.38257       -2.26181
H         80.33782      100.58755       -4.22440
H         82.70884      101.17864       -1.55139
H         81.78668      102.67022       -1.92935
H         81.37954      101.71563       -0.45501
N         78.08832       99.14177       -2.29161
C         76.91562       98.58213       -2.97254
C         75.96250       99.67808       -3.45979
O         75.54307      100.51149       -2.66953
C         76.12277       97.56834       -2.09295
C         76.87113       96.21669       -1.99857
C         75.75798       98.11893       -0.70135
C         75.96980       95.07990       -1.50728
H         77.92998       99.91486       -1.62737
H         77.24358       98.02040       -3.87259
H         75.17830       97.35790       -2.64360
H         77.77740       96.30766       -1.36367
H         77.19755       95.91401       -3.01534
H         75.17714       99.05743       -0.77416
H         75.12013       97.40313       -0.14709
H         76.67584       98.30954       -0.10649
H         75.08568       94.98154       -2.17628
H         76.52906       94.12190       -1.53729
H         75.62179       95.24755       -0.47005
N         75.53107       99.68511       -4.75625
C         74.57011      100.63583       -5.30950
C         73.30710       99.96714       -5.88937
O         72.51183      100.68986       -6.47412
C         75.29084      101.52131       -6.34789
C         75.91801      100.75298       -7.47606
O         75.22825      100.10323       -8.24223
O         77.25190      100.79774       -7.65578
H         75.91022       98.98434       -5.40075
H         74.20891      101.33471       -4.52286
H         76.09356      102.07850       -5.81700
H         74.58458      102.27222       -6.76375
N         73.00028       98.64164       -5.70605
C         71.73966       98.03871       -6.16017
C         71.96061       96.70923       -6.89437
O         71.49594       95.68648       -6.40684
C         70.78614       97.90118       -4.94082
C         69.44392       97.26187       -5.27075
C         68.62015       97.76889       -6.29509
C         69.00575       96.13673       -4.54499
C         67.39772       97.15387       -6.59205
C         67.77772       95.53409       -4.83797
C         66.97642       96.03930       -5.86335
H         73.61766       98.06286       -5.12444
H         71.21211       98.71348       -6.86465
H         70.59311       98.92104       -4.54337
H         71.29367       97.31943       -4.14006
H         68.92181       98.63035       -6.87469
H         69.61102       95.72580       -3.74697
H         66.77503       97.54095       -7.38867
H         67.44754       94.67291       -4.27065
H         66.02882       95.56739       -6.09236
N         72.59044       96.62617       -8.10994
C         72.60589       95.40917       -8.91926
C         73.34900       94.23364       -8.31988
O         73.30196       93.15553       -8.89631
C         73.31139       95.83599      -10.20866
C         72.93851       97.30103      -10.30268
C         73.11006       97.74897       -8.85534
H         71.54311       95.13879       -9.11330
H         74.41098       95.80463      -10.04028
H         73.07678       95.21144      -11.09683
H         73.53350       97.88616      -11.03546
H         71.85957       97.36459      -10.56903
H         74.19029       97.84108       -8.61375
H         72.58234       98.70768       -8.68169
N         74.11631       94.38341       -7.20718
C         74.89114       93.29675       -6.63622
C         73.91903       92.29083       -6.05009
O         73.95094       91.12895       -6.42936
C         75.89423       93.76929       -5.55088
C         76.88584       94.90124       -5.96056
C         76.21389       96.25065       -5.96483
O         76.31600       97.16394       -6.95990
O         75.49642       96.52333       -5.01929
H         74.16001       95.30506       -6.77479
H         75.51286       92.83709       -7.43769
H         76.49799       92.87552       -5.27848
H         75.36035       94.08040       -4.62667
H         77.40674       94.68147       -6.91325
H         77.65013       94.94549       -5.15710
N         72.98142       92.70788       -5.14799
C         71.96234       91.85005       -4.57933
H         70.96067       92.23160       -4.87410
H         72.05204       90.79915       -4.92310
H         72.03622       91.87257       -3.47212
H         72.96032       93.70112       -4.86975
Ca        77.98923       97.88035       -8.32970
O         77.25589      100.08622      -10.86007
H         77.34363      100.85870      -11.47295
H         76.32563       99.77233      -10.98854
O         79.15021       95.22228       -8.79212
H         79.41523       95.81966       -9.53588
H         78.44494       94.64515       -9.17726
O         79.62576       97.71631       -5.94199
H         78.98345       97.00717       -5.69246
H         80.49958       97.25438       -5.97079
O         76.62398       97.00961      -10.70188
H         76.20640       96.97818      -11.59822
H         76.79929       96.06272      -10.47240

Ca 1.0



