%chk=apoCaM-CA-Ng.loop3.water3.frame846.chk
%nprocshared=20
%mem=10GB
%nosave
#b3lyp/svp scf=(tight,noincore,xqc) Test 
#IOP(5/87=12) Density=Current Pop=(MK,readradii) iop(6/33=2) iop(6/42=6)

apoCaM-CA-Ng.loop3.water3.frame846 

   0  1 
C         88.07494       81.07763       76.20984
C         89.12245       81.45390       75.20526
O         90.08196       80.71746       75.03006
H         87.10071       80.96006       75.68521
H         88.32260       80.11225       76.69958
H         87.97877       81.87032       76.97843
N         88.95680       82.57376       74.45268
C         89.81115       82.88862       73.31691
C         91.19453       83.38532       73.74457
O         91.29327       84.41726       74.39283
C         89.07768       83.89666       72.40824
C         89.63908       83.97651       71.02318
O         89.13082       84.73379       70.21568
O         90.67572       83.21481       70.64030
H         88.10506       83.13566       74.61137
H         89.91004       81.95599       72.72921
H         89.07095       84.90038       72.88712
H         88.02430       83.57180       72.27884
N         92.30914       82.67753       73.40299
C         93.68324       83.04331       73.74464
C         94.10453       84.37453       73.12680
O         94.65908       85.18054       73.86147
C         94.63761       81.87678       73.36985
C         96.12716       82.17624       73.63629
C         97.04024       80.94851       73.43899
C         96.89596       79.91209       74.57070
N         97.81718       78.79039       74.38307
H         92.17209       81.80346       72.88370
H         93.77102       83.13823       74.85111
H         94.52900       81.60232       72.30446
H         94.31520       81.00420       73.97568
H         96.27891       82.57185       74.66353
H         96.44244       82.96006       72.91347
H         98.09421       81.30267       73.45052
H         96.84554       80.48215       72.44804
H         95.85979       79.51842       74.61959
H         97.12685       80.40683       75.54108
H         98.80491       79.13225       74.34125
H         97.72543       78.13353       75.19211
H         97.58268       78.27675       73.50299
N         93.87224       84.69391       71.81563
C         94.32444       85.95962       71.22242
C         93.19828       86.95657       70.99496
O         93.52179       88.07423       70.61393
C         95.17358       85.72570       69.94428
C         94.44857       84.95137       68.88227
O         93.28915       85.39728       68.37655
O         94.86542       83.85833       68.53685
H         93.33203       84.03798       71.23421
H         94.99443       86.48660       71.93610
H         96.08449       85.15870       70.23373
H         95.50064       86.70034       69.52199
N         91.88283       86.68138       71.25155
C         90.86157       87.71872       71.19648
C         89.84803       87.51652       70.10406
O         88.65969       87.58071       70.38769
H         91.59904       85.74030       71.55125
H         91.31157       88.71366       70.99498
H         90.36293       87.79905       72.18775
N         90.25094       87.38221       68.80760
C         89.34159       87.53687       67.67353
C         89.27006       86.31042       66.77425
O         89.96069       85.33005       67.00180
C         89.84436       88.74988       66.86038
C         89.93796       89.98338       67.72644
N         91.13945       90.54769       67.99644
O         88.92158       90.46452       68.20417
H         91.25998       87.29951       68.60959
H         88.30664       87.74016       68.02748
H         89.18458       88.97080       65.99621
H         90.85276       88.50069       66.45984
H         92.01106       90.14565       67.62072
H         91.20307       91.38038       68.60041
N         88.42085       86.32914       65.70563
C         88.27862       85.27473       64.71259
C         87.76968       83.97871       65.29060
O         86.80638       84.00084       66.04452
H         87.83755       87.16770       65.56381
H         89.23503       85.12424       64.16741
H         87.52284       85.61315       63.97095
N         88.32627       82.78987       64.91237
C         87.85566       81.50361       65.42157
C         88.17685       81.35946       66.89985
O         88.78239       82.25030       67.47723
C         88.47323       80.32660       64.61883
C         87.96796       80.24463       63.19402
C         86.59250       80.08131       62.93838
C         88.86073       80.28120       62.10988
C         86.12117       79.96477       61.62825
C         88.38623       80.15748       60.79803
C         87.01763       79.99938       60.55245
O         86.57713       79.87530       59.28374
H         89.08312       82.80027       64.21097
H         86.75099       81.45315       65.31714
H         88.19125       79.35831       65.07937
H         89.58290       80.39536       64.65660
H         85.87980       80.03415       63.75147
H         89.92443       80.39076       62.27759
H         85.05978       79.83908       61.45197
H         89.08409       80.17710       59.97051
H         85.63944       79.75632       59.07357
N         87.76726       80.24257       67.57296
C         87.96933       79.97764       68.99352
C         89.44978       79.90073       69.33993
O         90.14942       80.89443       69.21309
C         87.22281       81.01393       69.88452
C         87.38047       80.71931       71.40077
C         85.73651       81.11017       69.49830
C         86.81564       79.38196       71.88510
H         87.24573       79.52270       67.05159
H         87.50920       78.98623       69.19428
H         87.66671       82.01810       69.71215
H         86.88293       81.52871       71.97598
H         88.45520       80.73507       71.65603
H         85.62747       81.42948       68.44053
H         85.22548       80.13262       69.61612
H         85.22566       81.86722       70.13011
H         86.99041       79.29352       72.97839
H         85.72344       79.32079       71.70727
H         87.32339       78.52794       71.39414
N         89.99334       78.74089       69.80741
C         91.39398       78.65735       70.23209
C         91.94939       77.25098       70.46673
O         93.13860       77.16391       70.74422
C         91.58292       79.47804       71.51769
O         90.80563       78.92893       72.54988
H         89.36627       77.93484       69.85552
H         92.01947       79.08227       69.41799
H         91.26770       80.52277       71.34833
H         92.66336       79.48915       71.79584
H         91.31387       79.05255       73.39272
N         91.20467       76.11064       70.37468
C         91.77669       74.78262       70.56937
C         92.80644       74.46500       69.48796
O         92.87385       75.20945       68.51860
C         90.63691       73.76685       70.51552
H         90.20298       76.15610       70.17303
H         92.25917       74.75439       71.57090
H         89.90750       73.96813       71.32942
H         90.11342       73.81773       69.53690
H         91.01766       72.75929       70.62867
N         93.67591       73.40979       69.54545
C         93.88249       72.51000       70.68002
C         94.40304       71.16778       70.17768
O         95.41972       71.17895       69.49588
C         94.93812       73.12411       71.60850
H         94.36330       73.35272       68.77642
H         92.97430       72.38618       71.28744
H         95.89708       73.28558       71.06925
H         94.58944       74.10384       71.99675
H         95.12458       72.45194       72.47387
N         93.84771       69.95419       70.47200
C         92.66006       69.70330       71.28564
C         91.39153       70.09187       70.56204
O         90.49450       70.61794       71.20444
C         92.55029       68.20634       71.64480
C         93.71675       67.74516       72.53255
C         93.55483       66.30639       72.92458
O         93.44194       65.97088       74.22394
O         93.53230       65.43381       72.07121
H         94.34743       69.12897       70.10377
H         92.73076       70.24435       72.25634
H         92.50263       67.59263       70.71753
H         91.60765       68.04797       72.21721
H         93.74197       68.36998       73.45242
H         94.68562       67.86306       72.00428
N         91.21903       69.79868       69.24160
C         90.02117       70.13625       68.49784
H         89.26325       70.65407       69.12279
H         90.29024       70.80676       67.65449
H         89.56710       69.20984       68.08896
H         91.97574       69.32384       68.72727
Ca        91.69623       83.89624       68.77945
O         92.52876       80.75946       67.15533
H         92.98681       79.89089       67.28222
H         92.04407       80.66103       66.29824
O         93.50618       81.42267       69.85195
H         94.11966       82.13426       70.15537
H         94.03321       80.59168       69.95587
O         91.77612       83.41746       65.55237
H         91.63787       84.30400       65.13421
H         91.90396       82.80128       64.78830

Ca 1.0



