%chk=apoCaM-CA-Ng.loop4.water4.frame243.chk
%nprocshared=20
%mem=10GB
%nosave
#b3lyp/svp scf=(tight,noincore,xqc) Test 
#IOP(5/87=12) Density=Current Pop=(MK,readradii) iop(6/33=2) iop(6/42=6)

apoCaM-CA-Ng.loop4.water4.frame243 

   -3  1 
C         18.29520       32.11400       86.87269
C         17.44763       33.34625       86.80688
O         16.74434       33.60148       87.76570
H         18.98005       32.18903       87.74435
H         17.64028       31.22705       87.00710
H         18.89760       31.98223       85.95162
N         17.47781       34.17273       85.72165
C         16.69334       35.39837       85.59999
C         16.99759       36.39278       86.70318
O         16.10531       36.76103       87.44344
C         15.18562       35.14899       85.30351
C         14.37064       34.10816       86.05211
O         14.08821       34.13647       87.37401
O         13.85709       33.21728       85.39295
H         18.11989       33.94359       84.94813
H         17.03327       35.93452       84.68344
H         15.15664       34.82193       84.23812
H         14.64983       36.12238       85.33092
N         18.26315       36.90405       86.80375
C         18.73833       37.95844       87.70872
C         18.20014       39.33625       87.29092
O         18.99588       40.15168       86.84473
C         18.54594       37.60218       89.21092
C         19.22337       38.62867       90.16221
C         19.06946       36.18234       89.50569
C         20.75027       38.73091       90.05249
H         18.97088       36.51984       86.15786
H         19.83590       38.00610       87.53754
H         17.45930       37.61153       89.44382
H         18.97217       38.35274       91.20953
H         18.81421       39.63740       89.97555
H         18.50223       35.42606       88.92611
H         20.14045       36.08087       89.23536
H         18.95018       35.93959       90.58119
H         21.06552       39.06410       89.04408
H         21.11753       39.48685       90.77670
H         21.23868       37.76563       90.29577
N         16.87374       39.65195       87.33698
C         16.31746       40.86580       86.74573
C         16.62036       42.13296       87.53522
O         17.07693       43.08238       86.91443
C         14.78630       40.74444       86.52121
C         14.38915       39.61978       85.59702
O         13.08660       39.43356       85.31183
O         15.22233       38.88088       85.09559
H         16.20917       38.97445       87.71523
H         16.73224       40.98410       85.71737
H         14.41972       41.68885       86.06199
H         14.24397       40.60407       87.46984
N         16.33917       42.30093       88.86171
C         15.97696       41.22499       89.77145
C         15.61272       41.74494       91.14902
O         16.31949       42.61817       91.63199
H         16.47072       43.24746       89.25245
H         16.86026       40.57583       89.88041
H         15.19291       40.59836       89.36233
N         14.59699       41.23912       91.91793
C         13.72296       40.11149       91.60669
C         14.53760       38.85475       91.29483
O         14.44233       38.34931       90.18460
C         12.67089       40.48738       90.52576
C         11.58245       39.45299       90.35904
O         11.55656       38.33254       91.10722
O         10.69479       39.64319       89.54353
H         14.47369       41.65180       92.85632
H         13.11666       39.89891       92.51525
H         13.12469       40.65893       89.53741
H         12.17581       41.43305       90.83131
N         15.33846       38.23858       92.21367
C         15.50709       38.63212       93.59844
C         16.42617       39.80769       93.76591
O         17.28703       40.03790       92.92713
H         15.80837       37.37534       91.93148
H         15.99622       37.80242       94.15266
H         14.51877       38.78684       94.08016
N         16.30987       40.58817       94.87322
C         17.15169       41.75226       95.11764
C         18.60031       41.37800       95.40996
O         19.41223       42.28687       95.49454
C         16.60736       42.55941       96.31776
C         15.19374       43.11557       96.06067
C         14.62195       43.84608       97.25222
N         13.38526       44.38814       97.17353
O         15.25825       43.94577       98.29190
H         15.56636       40.35222       95.54845
H         17.12618       42.40315       94.21595
H         17.27956       43.42025       96.53052
H         16.59216       41.89446       97.20860
H         14.49300       42.29216       95.81387
H         15.23317       43.81238       95.19577
H         12.83281       44.31097       96.30687
H         12.97712       44.88270       97.98051
N         18.98752       40.08614       95.64406
C         20.35190       39.73116       96.03802
C         20.40743       39.30112       97.49472
O         21.51318       39.13626       98.00005
C         20.95087       38.63676       95.11240
C         20.99989       39.11247       93.65757
C         20.19483       37.29843       95.20080
H         18.28666       39.33637       95.61546
H         21.00566       40.62771       95.97137
H         21.99883       38.44833       95.43790
H         21.59492       40.04637       93.57794
H         21.48040       38.33820       93.02200
H         19.97713       39.30411       93.27140
H         19.14726       37.39364       94.84755
H         20.70533       36.54144       94.56943
H         20.18716       36.91542       96.24322
N         19.28086       39.08806       98.23411
C         19.30333       38.71487       99.63659
C         18.80996       37.29618       99.79342
O         19.53582       36.48510      100.34842
C         18.42038       39.66977      100.46639
C         18.80487       41.11519      100.28114
N         17.90467       42.00618       99.80158
O         19.93294       41.48646      100.56844
H         18.35190       39.17719       97.79862
H         20.33931       38.77076      100.04471
H         18.50438       39.40566      101.54346
H         17.35665       39.54174      100.17240
H         16.94605       41.71188       99.56308
H         18.16090       42.99541       99.67026
N         17.56592       36.93465       99.35192
C         16.99224       35.62189       99.61489
C         16.56122       34.90771       98.33897
O         16.28779       35.54964       97.33577
C         15.72667       35.80533      100.47957
C         15.92869       36.67998      101.69396
C         16.76653       36.28571      102.74860
C         15.25329       37.91136      101.77749
C         16.91679       37.10891      103.87193
C         15.40995       38.73265      102.89406
C         16.23671       38.33506      103.94711
O         16.36541       39.13626      105.02368
H         16.97523       37.63220       98.87744
H         17.72006       34.98557      100.16420
H         15.33175       34.81897      100.80302
H         14.95410       36.28240       99.83468
H         17.29248       35.34050      102.70631
H         14.60364       38.24083      100.97576
H         17.55781       36.79246      104.68465
H         14.88251       39.67742      102.94078
H         16.91627       38.89694      105.78202
N         16.33191       33.56398       98.39610
C         15.63722       32.73778       97.40534
C         16.29792       32.55238       96.04529
O         15.82592       31.67808       95.32967
C         14.18167       33.20119       97.20513
C         13.41241       33.29843       98.52801
C         11.98491       33.68854       98.28998
O         10.98961       32.87367       98.68718
O         11.71798       34.74869       97.74639
H         16.58244       33.08535       99.27577
H         15.59927       31.71473       97.84874
H         13.66223       32.46471       96.55191
H         14.17116       34.18731       96.69332
H         13.87484       34.06288       99.17995
H         13.44627       32.31846       99.05169
N         17.38810       33.25152       95.61771
C         18.08471       32.90265       94.38046
C         19.30543       32.05786       94.71536
O         19.95785       31.59111       93.79191
C         18.52088       34.16503       93.60444
C         17.39229       35.13060       93.21247
C         16.49751       34.63542       92.10758
O         16.41787       35.35967       90.97167
O         15.80591       33.64084       92.25085
H         17.82194       33.95306       96.23125
H         17.43874       32.27861       93.72497
H         19.08396       33.88336       92.68590
H         19.21551       34.72107       94.26626
H         17.87504       36.06395       92.84620
H         16.78809       35.39657       94.10398
N         19.67057       31.80789       96.01111
C         20.80419       30.99509       96.38622
H         21.51791       31.61753       96.96516
H         20.45087       30.16274       97.03074
H         21.32835       30.56775       95.50813
H         19.13976       32.20548       96.79778
Ca        15.03769       35.01830       89.22450
O         11.46582       34.28544       89.00115
H         11.57688       33.66024       89.76072
H         10.88579       35.00583       89.35480
O         12.78011       36.89025       87.89432
H         13.36449       37.58829       87.50661
H         11.97418       37.37934       88.19547
O         14.13184       32.13339       89.88791
H         15.09982       32.34092       89.88266
H         14.01010       31.51142       89.12752
O         13.28469       35.46799       91.65196
H         12.77035       36.04195       91.03156
H         12.62326       35.17257       92.32604

Ca 1.0



