%chk=apoCaM-CA-Ng.loop1.water3.frame1181.chk
%nprocshared=20
%mem=10GB
%nosave
#b3lyp/svp scf=(tight,noincore,xqc) Test 
#IOP(5/87=12) Density=Current Pop=(MK,readradii) iop(6/33=2) iop(6/42=6)

apoCaM-CA-Ng.loop1.water3.frame1181 

   0  1 
C        115.21544       27.97936       94.04717
C        116.24382       28.92666       94.58470
O        115.87667       29.99591       95.05000
H        114.19949       28.42553       94.10694
H        115.44131       27.74213       92.98681
H        115.23084       27.04473       94.64576
N        117.56280       28.57790       94.56857
C        118.62402       29.39984       95.14551
C        119.16808       30.44807       94.17371
O        120.36625       30.48023       93.92520
C        119.72950       28.50663       95.76845
C        120.46596       27.60337       94.80601
O        120.20939       27.59334       93.61199
O        121.42768       26.78847       95.27841
H        117.79294       27.63249       94.22925
H        118.19839       29.95479       95.99742
H        119.26279       27.86681       96.54808
H        120.47634       29.15962       96.27200
N        118.34108       31.38289       93.62504
C        118.81744       32.47955       92.78817
C        119.72111       33.39557       93.60726
O        120.85355       33.59203       93.19007
C        117.66593       33.27541       92.10969
C        116.62150       32.39616       91.38807
C        117.21248       31.48057       90.30378
C        116.16673       30.52678       89.69998
N        115.08201       31.23162       89.01634
H        117.34208       31.32998       93.83158
H        119.41033       32.04846       91.95185
H        118.11828       33.98288       91.38025
H        117.10657       33.89700       92.83206
H        115.87254       33.07753       90.93393
H        116.08480       31.77108       92.13023
H        117.99114       30.82969       90.75202
H        117.68227       32.09586       89.50644
H        115.74417       29.88097       90.50273
H        116.68335       29.86535       88.96988
H        114.44760       30.52572       88.57777
H        114.51805       31.79204       89.69363
H        115.46959       31.85100       88.26864
N        119.36826       33.94010       94.81615
C        118.09078       33.74508       95.50650
C        118.24344       32.70096       96.60187
O        119.34678       32.21483       96.81133
C        117.55182       35.09841       96.02677
C        118.42244       35.64334       97.12256
O        118.59272       34.88569       98.22060
O        118.97378       36.72064       97.00962
H        120.10015       34.46276       95.32432
H        117.33108       33.33651       94.83179
H        116.53260       34.95905       96.44286
H        117.47659       35.81764       95.18104
N        117.16845       32.29539       97.33804
C        117.26038       31.23045       98.32651
C        117.44527       31.74898       99.72367
O        117.43231       32.94897       99.93997
H        116.24298       32.71305       97.15720
H        118.12523       30.57225       98.11196
H        116.34465       30.60267       98.27890
N        117.67434       30.86366      100.73218
C        117.85116       31.24975      102.12963
C        116.90079       30.43722      103.01285
O        116.31417       29.48377      102.51929
C        119.34329       31.05129      102.50001
C        120.15871       32.04041      101.71699
O        119.93205       33.36139      101.89315
O        120.94054       31.65586      100.86411
H        117.76286       29.86440      100.48897
H        117.59254       32.31945      102.25034
H        119.64424       30.00569      102.26766
H        119.56738       31.22447      103.56177
N        116.65068       30.73517      104.32449
C        117.17679       31.89133      105.02964
C        116.64139       33.18867      104.47366
O        115.64646       33.18111      103.76492
H        116.01999       30.11141      104.85210
H        118.27533       31.88349      105.02646
H        116.88158       31.84895      106.10011
N        117.25159       34.35928      104.79704
C        116.75229       35.67143      104.39265
C        116.71264       35.85816      102.86664
O        117.51921       35.27664      102.15735
C        117.55601       36.77148      105.12440
C        116.98531       38.16758      104.90580
O        118.90380       36.74692      104.72537
H        118.08532       34.30781      105.40352
H        115.70775       35.74189      104.77011
H        117.46916       36.57088      106.22144
H        119.44013       36.41654      105.49331
H        117.55979       38.90489      105.50568
H        117.05530       38.44102      103.83643
H        115.92243       38.20264      105.22790
N        115.70763       36.60960      102.31597
C        115.39826       36.79684      100.89197
C        116.46668       37.57949      100.13671
O        117.57286       37.08229       99.98220
C        115.10531       35.45017      100.15771
C        114.13031       34.56138      100.96785
C        114.55411       35.72142       98.74084
C        113.90307       33.17535      100.35801
H        115.04564       37.05328      102.97056
H        114.45602       37.38940      100.85991
H        116.06039       34.90431      100.05749
H        113.15520       35.07420      101.10250
H        114.56315       34.38967      101.96789
H        114.42308       34.78081       98.17016
H        113.57590       36.24528       98.80190
H        115.25257       36.34771       98.15033
H        113.27767       32.56830      101.04489
H        113.37552       33.23890       99.38618
H        114.86714       32.64831      100.21727
N        116.16873       38.79267       99.57803
C        117.08294       39.52285       98.69826
C        117.59600       40.77830       99.38450
O        117.53092       41.86820       98.82823
C        116.42081       39.76979       97.30772
C        115.10849       40.57160       97.35805
O        116.14671       38.53508       96.69496
H        115.24634       39.20821       99.77035
H        117.99637       38.91670       98.51322
H        117.12996       40.35640       96.67443
H        116.90756       38.32611       96.09300
H        115.25085       41.56684       97.82395
H        114.72937       40.72930       96.32523
H        114.31993       40.02397       97.91419
N        118.15153       40.66914      100.62139
C        118.74543       41.76915      101.37257
C        120.10562       41.34304      101.88837
O        120.17051       40.36049      102.61752
C        117.84770       42.16357      102.57002
C        116.56255       42.87421      102.12760
O        117.55023       41.05239      103.37885
H        118.14038       39.73960      101.07048
H        118.86344       42.67389      100.73387
H        118.40238       42.89971      103.19265
H        116.85996       40.51581      102.90760
H        115.94119       42.21829      101.48284
H        115.97388       43.16150      103.02468
H        116.81707       43.79830      101.56594
N        121.23794       42.03570      101.57190
C        122.56500       41.68220      102.07079
C        122.91742       40.27082      101.63564
O        123.12791       39.40259      102.47075
C        122.66008       41.84570      103.60683
C        122.42513       43.28774      104.07457
C        122.60809       43.37074      105.59914
C        122.41402       44.78141      106.17616
N        123.41447       45.72919      105.68121
H        121.16455       42.85189      100.94345
H        123.31726       42.36924      101.62254
H        123.68705       41.55031      103.91717
H        121.94234       41.17179      104.11984
H        121.39784       43.61599      103.80271
H        123.16108       43.94459      103.56573
H        123.62479       43.01215      105.87277
H        121.86402       42.69837      106.08036
H        122.51237       44.70790      107.28242
H        121.39160       45.15372      105.94678
H        123.30171       46.63616      106.18879
H        124.37869       45.36404      105.85830
H        123.28128       45.90861      104.66109
N        122.97947       39.98329      100.30756
C        123.24714       38.65006       99.78777
C        122.04186       38.12876       99.01079
O        121.50607       37.12189       99.45217
C        124.56023       38.61804       98.98650
C        125.76690       38.93403       99.88360
C        127.04829       38.87823       99.10457
O        127.23216       39.63763       98.16653
O        128.00779       37.99718       99.44603
H        122.82925       40.75425       99.64975
H        123.39554       37.93524      100.62955
H        124.53691       39.34874       98.16001
H        124.69592       37.59738       98.56376
H        125.81171       38.19212      100.71130
H        125.66342       39.94819      100.32538
N        121.50506       38.68454       97.88235
C        121.95879       39.85582       97.16671
H        122.97568       39.70607       96.76573
H        121.29608       40.02270       96.29040
H        121.88186       40.76527       97.78496
H        120.68245       38.22381       97.48111
Ca       119.81622       34.74570      100.10864
O        122.37598       35.24919      101.92509
H        122.45364       36.08646      102.44748
H        123.10889       35.30134      101.26163
O        121.93601       33.25711       98.41913
H        121.06001       32.84129       98.61583
H        122.39748       33.28712       99.29466
O        119.84352       37.25127      101.99020
H        120.66542       37.80090      102.02214
H        119.13918       37.83526      102.36690

Ca 1.0



