%chk=apoCaM-CA-Ng.loop3.water4.frame31.chk
%nprocshared=20
%mem=10GB
%nosave
#b3lyp/svp scf=(tight,noincore,xqc) Test 
#IOP(5/87=12) Density=Current Pop=(MK,readradii) iop(6/33=2) iop(6/42=6)

apoCaM-CA-Ng.loop3.water4.frame31 

   0  1 
C         56.72280       80.84238       61.13126
C         55.88830       81.70679       62.03053
O         55.81985       82.90473       61.80454
H         57.77632       81.19135       61.15539
H         56.70176       79.78012       61.45480
H         56.33732       80.90060       60.09330
N         55.23987       81.16156       63.09599
C         54.44249       81.91525       64.05658
C         55.28522       82.97842       64.74087
O         54.86569       84.12349       64.84488
C         53.16358       82.49540       63.41148
C         52.30741       81.41518       62.81437
O         52.04472       81.42776       61.62247
O         51.81464       80.43420       63.59473
H         55.33874       80.14878       63.26647
H         54.12633       81.20421       64.85314
H         53.43453       83.23507       62.62747
H         52.56264       83.02149       64.18476
N         56.50885       82.64679       65.23543
C         57.34894       83.55894       66.00089
C         58.60172       83.96720       65.23734
O         59.36691       84.75453       65.77848
C         57.71582       82.85910       67.32911
C         56.46269       82.58955       68.18446
C         56.71301       81.67093       69.39008
C         57.77467       82.18923       70.36838
N         57.87389       81.30561       71.53079
H         56.85998       81.68821       65.08051
H         56.80936       84.50589       66.22296
H         58.42089       83.48713       67.91449
H         58.22185       81.89680       67.08888
H         55.68957       82.07837       67.57157
H         56.04383       83.56229       68.52249
H         57.01780       80.66498       69.02613
H         55.74666       81.56309       69.93005
H         57.50578       83.21292       70.70860
H         58.76284       82.22962       69.86017
H         58.62559       81.65562       72.16718
H         56.96670       81.29845       72.05191
H         58.11130       80.33243       71.22872
N         58.89230       83.49300       63.98903
C         60.11651       83.86698       63.28442
C         60.08626       85.32745       62.83578
O         59.02501       85.93730       62.82704
C         60.30650       82.92900       62.07042
C         61.64388       83.07923       61.41427
O         61.72369       83.37324       60.23346
O         62.76394       82.86264       62.12842
H         58.26511       82.80379       63.55031
H         60.96234       83.70437       63.98958
H         59.48927       83.10011       61.33394
H         60.24177       81.87611       62.41921
N         61.23506       85.94982       62.44139
C         61.27678       87.29690       61.89683
C         60.66258       87.31584       60.52068
O         59.72034       88.06030       60.28867
H         62.13092       85.45009       62.53072
H         62.33507       87.61232       61.78245
H         60.78243       88.01283       62.59007
N         61.15799       86.49005       59.55133
C         60.61321       86.41466       58.19730
C         59.16856       85.92881       58.17712
O         58.56332       85.97900       57.11428
C         61.43995       85.43749       57.32666
C         62.89353       85.81656       57.20858
N         63.26680       86.95908       56.58868
O         63.74670       85.06795       57.65953
H         61.96480       85.89725       59.79377
H         60.65331       87.43482       57.75433
H         61.01790       85.38430       56.30113
H         61.36321       84.42231       57.77580
H         62.56410       87.59305       56.18253
H         64.26516       87.20058       56.49912
N         58.55121       85.42401       59.28738
C         57.18036       84.95855       59.27862
C         57.02246       83.76807       58.36252
O         57.62419       82.73304       58.60635
H         59.05256       85.35882       60.18037
H         56.52353       85.80227       58.97092
H         56.87838       84.66316       60.30302
N         56.21227       83.87312       57.27629
C         55.93803       82.85756       56.26516
C         57.08885       82.56871       55.29973
O         56.78366       82.05723       54.23410
C         55.36559       81.54485       56.84965
C         54.65154       80.77655       55.76073
C         53.43527       81.27418       55.26196
C         55.19155       79.60323       55.20772
C         52.77289       80.62050       54.22341
C         54.53197       78.95691       54.15402
C         53.32088       79.46674       53.65805
O         52.67878       78.86409       52.63722
H         55.71031       84.76678       57.15178
H         55.15012       83.33161       55.63558
H         54.63293       81.74534       57.66117
H         56.20343       80.95814       57.28739
H         53.00128       82.17473       55.67944
H         56.13332       79.20761       55.56700
H         51.83787       81.02036       53.85130
H         54.96621       78.06674       53.71702
H         53.03039       78.07661       52.19908
N         58.40593       82.82104       55.58660
C         59.53444       82.64721       54.66607
C         59.61921       83.86313       53.75234
O         60.63097       84.55044       53.80745
C         59.58301       81.26103       53.93770
C         59.54981       80.10556       54.97553
C         60.85376       81.16282       53.06753
C         59.47791       78.70849       54.34975
H         58.65962       83.17688       56.51253
H         60.46197       82.68538       55.28665
H         58.71543       81.16348       53.25567
H         58.65047       80.21191       55.61732
H         60.44739       80.16209       55.63054
H         61.76890       81.22362       53.69407
H         60.87603       80.22141       52.48366
H         60.88747       81.97941       52.32614
H         60.37621       78.47911       53.74230
H         59.42415       77.94614       55.15555
H         58.57015       78.61729       53.71641
N         58.58815       84.24418       52.94113
C         58.63025       85.48642       52.17845
C         59.66685       85.45066       51.07653
O         60.04572       86.51353       50.60569
C         57.25534       85.83454       51.58711
O         56.86077       84.88637       50.62936
H         57.72997       83.68807       52.91567
H         58.89443       86.29776       52.89472
H         57.29830       86.83054       51.09679
H         56.49777       85.91815       52.40111
H         56.33116       84.19380       51.10289
N         60.15855       84.26728       50.60326
C         61.18662       84.16643       49.58138
C         62.45207       84.82768       50.07996
O         62.93829       85.77232       49.47168
C         60.69089       84.71640       48.23563
H         59.79722       83.38311       50.98415
H         61.41608       83.08977       49.41301
H         60.45550       85.79800       48.28559
H         61.47117       84.56430       47.45953
H         59.77803       84.16614       47.92298
N         63.05350       84.34215       51.20089
C         64.29520       84.89608       51.72608
C         64.94803       83.97055       52.73073
O         64.31638       83.04069       53.21645
C         64.04584       86.26406       52.37659
H         62.63341       83.51003       51.64091
H         65.00774       84.98178       50.87633
H         63.34287       86.15185       53.23246
H         64.99458       86.69823       52.75638
H         63.60211       86.97767       51.65360
N         66.27018       84.13869       53.03315
C         67.00872       83.28805       53.95991
C         67.07340       81.82690       53.48795
O         67.60359       81.00203       54.21698
C         66.41384       83.49089       55.37330
C         67.24859       82.89728       56.51701
C         66.65411       83.31493       57.82721
O         66.59850       84.49770       58.12688
O         66.14377       82.39642       58.66392
H         66.78651       84.90954       52.58199
H         68.05697       83.65901       54.00588
H         65.37824       83.09518       55.43494
H         66.37055       84.59180       55.53689
H         68.29672       83.26452       56.46840
H         67.25044       81.79083       56.46090
N         66.60455       81.43658       52.26186
C         66.62876       80.06727       51.78862
H         65.59321       79.75198       51.53900
H         67.24950       80.00614       50.87028
H         67.03541       79.36132       52.54150
H         66.22141       82.12378       51.60085
Ca        65.02947       83.16593       60.45762
O         63.14550       82.01205       57.86570
H         63.31012       82.30544       56.93453
H         62.89803       81.05689       57.78615
O         64.45550       86.06184       60.98373
H         64.73006       86.49189       61.83219
H         64.33879       86.81213       60.34848
O         67.08211       84.11430       62.34510
H         66.35102       84.35660       62.96761
H         66.99401       84.75754       61.59711
O         64.29392       80.37074       60.78295
H         65.23007       80.10309       60.96371
H         63.92483       79.63749       60.23041

Ca 1.0



