%chk=apoCaM-CA-Ng.loop2.water3.frame1357.chk
%nprocshared=20
%mem=10GB
%nosave
#b3lyp/svp scf=(tight,noincore,xqc) Test 
#IOP(5/87=12) Density=Current Pop=(MK,readradii) iop(6/33=2) iop(6/42=6)

apoCaM-CA-Ng.loop2.water3.frame1357 

   -2  1 
C         88.31382       45.95512      101.88979
C         87.64453       45.93785      100.53283
O         88.36669       45.80325       99.55649
H         89.06789       46.76761      101.91767
H         87.63926       46.12357      102.74764
H         88.83052       44.98449      102.05039
N         86.29446       46.04944      100.34000
C         85.31596       46.16710      101.41527
C         85.15574       47.60108      101.90576
O         84.57820       47.78222      102.96842
C         83.99698       45.44545      101.06473
C         83.22899       45.96071       99.87928
O         82.21002       45.37957       99.54521
O         83.63327       47.02539       99.16559
H         85.95115       46.00468       99.36834
H         85.68114       45.57250      102.27542
H         83.32455       45.46827      101.94909
H         84.24660       44.38184      100.85293
N         85.65108       48.66665      101.20649
C         85.66443       50.03377      101.72227
C         84.63623       50.93382      101.05441
O         84.63991       52.12412      101.34045
C         87.08200       50.59911      101.57595
H         86.05694       48.51320      100.27107
H         85.41773       50.05039      102.80653
H         87.14261       51.62129      102.00782
H         87.80318       49.95244      102.12018
H         87.37704       50.64509      100.50572
N         83.66022       50.43508      100.24173
C         82.55855       51.26391       99.75074
C         81.28458       50.44771       99.54581
O         81.31394       49.23079       99.66722
C         83.00247       52.09085       98.52773
C         83.49391       51.23216       97.39712
O         84.65064       51.31981       97.01610
O         82.65939       50.37553       96.78692
H         83.62931       49.42082      100.08204
H         82.27432       51.97030      100.56306
H         83.82860       52.76478       98.84374
H         82.16864       52.72942       98.16730
N         80.08834       51.08061       99.36751
C         78.81922       50.36826       99.41100
C         78.54556       49.55203       98.16862
O         79.37295       48.74434       97.77376
H         80.06685       52.11163       99.34697
H         77.99747       51.10390       99.55006
H         78.80972       49.70792      100.30490
N         77.35281       49.68729       97.52219
C         77.00276       48.93292       96.32451
C         77.92611       49.32205       95.19540
O         78.07535       50.50885       94.93338
C         75.53964       49.19968       95.91078
C         74.56756       48.70284       96.95548
N         73.69169       49.54639       97.54905
O         74.56503       47.51904       97.26064
H         76.65739       50.34552       97.90719
H         77.09129       47.84109       96.52454
H         75.32242       48.65222       94.96718
H         75.39199       50.28524       95.71962
H         73.66963       50.54653       97.30413
H         73.02824       49.19572       98.25625
N         78.55549       48.36829       94.45332
C         79.43794       48.71578       93.35557
C         80.82384       49.07944       93.85430
O         81.07566       48.93346       95.04023
H         78.35313       47.37199       94.62662
H         78.96348       49.53340       92.77154
H         79.56061       47.83742       92.68600
N         81.81258       49.52801       93.02497
C         81.61692       49.84868       91.61438
C         82.40935       48.94774       90.68016
O         82.18703       49.05115       89.48217
C         81.96896       51.33655       91.37169
C         81.13771       52.27392       92.25449
O         83.33171       51.55938       91.64301
H         82.74380       49.70391       93.43547
H         80.55987       49.70077       91.32637
H         81.73168       51.59298       90.31081
H         83.78877       51.71775       90.77642
H         80.05383       52.12919       92.06360
H         81.34147       52.08872       93.33156
H         81.40157       53.32998       92.03344
N         83.34644       48.05827       91.12721
C         84.09406       47.16740       90.24271
C         83.97179       45.72594       90.74080
O         84.35300       45.47540       91.87549
C         85.58066       47.61576       90.15110
C         85.72447       49.00284       89.45687
C         86.44602       46.57078       89.42125
C         85.29054       49.05614       87.97826
H         83.57234       48.01965       92.13106
H         83.71205       47.23387       89.21986
H         85.98701       47.70562       91.18277
H         86.79259       49.30620       89.49793
H         85.14293       49.76010       90.02138
H         86.03975       46.37228       88.41338
H         87.49602       46.92102       89.33738
H         86.46324       45.60818       89.97358
H         84.21560       48.82877       87.84231
H         85.45726       50.07856       87.58125
H         85.88420       48.35718       87.35417
N         83.53136       44.69441       89.95224
C         83.05133       44.86140       88.57995
C         82.97455       43.56251       87.79620
O         83.13515       42.48561       88.35565
C         81.63845       45.51508       88.60353
C         80.63214       44.68734       89.36853
O         80.03869       45.19626       90.46542
O         80.33991       43.56117       88.99813
H         83.57541       43.74550       90.35517
H         83.78721       45.47015       88.01471
H         81.26151       45.67361       87.57187
H         81.67593       46.50735       89.08497
N         82.66672       43.62040       86.46662
C         82.31071       42.45746       85.67326
C         83.15719       42.34145       84.40427
O         83.21207       43.32090       83.67113
C         80.83155       42.61953       85.27450
C         80.26177       41.32241       84.77518
C         79.88160       41.16220       83.43534
C         80.10205       40.25308       85.67419
C         79.35712       39.94065       83.00087
C         79.57267       39.03953       85.23866
C         79.20186       38.88156       83.90181
H         82.57036       44.54651       86.02075
H         82.37866       41.55430       86.29590
H         80.74161       43.43535       84.52201
H         80.22316       42.92371       86.15458
H         80.00015       41.97460       82.72915
H         80.38286       40.36382       86.71523
H         79.07038       39.81464       81.96576
H         79.45081       38.22444       85.94004
H         78.79304       37.93847       83.56607
N         83.77096       41.17835       84.00646
C         83.73825       39.90599       84.71156
C         84.40972       39.99238       86.05987
O         83.77035       39.70444       87.06185
C         84.47499       38.93378       83.77326
C         84.16092       39.52774       82.41653
C         84.36281       41.01526       82.69359
H         82.67643       39.58918       84.80046
H         85.57726       39.02228       83.88787
H         84.20278       37.86585       83.91177
H         84.76605       39.12780       81.57520
H         83.08163       39.34890       82.20336
H         85.44505       41.26657       82.75421
H         83.86500       41.61431       81.89987
N         85.70646       40.39934       86.15561
C         86.38488       40.59346       87.42414
C         87.21745       39.35712       87.72007
O         88.13074       39.07569       86.95653
C         87.29017       41.84468       87.34736
C         86.52156       43.12039       86.95798
C         87.43544       44.30017       86.75374
O         86.96979       45.36012       86.36922
O         88.76458       44.20010       86.95581
H         86.23625       40.59649       85.29271
H         85.63543       40.77292       88.22160
H         88.06840       41.66606       86.57161
H         87.79753       41.99941       88.32503
H         85.77564       43.36424       87.74260
H         85.98865       42.95303       85.99762
N         86.97577       38.53421       88.78027
C         85.89558       38.72455       89.72406
H         84.91921       38.69008       89.19695
H         85.90556       37.90868       90.47723
H         86.00995       39.69376       90.25260
H         87.58283       37.71027       88.91159
Ca        82.32869       47.61119       97.41941
O         80.71254       45.42740       95.84768
H         80.72220       45.53169       94.86312
H         79.86124       44.95984       96.03991
O         79.54335       46.24296       99.16905
H         78.73894       46.65599       99.57130
H         79.19204       45.64358       98.46402
O         84.26238       46.26201       95.64647
H         84.31272       46.80620       94.82083
H         84.89592       46.69750       96.27103

Ca 1.0



