%chk=apoCaM-CA-Ng.loop1.water3.frame1167.chk
%nprocshared=20
%mem=10GB
%nosave
#b3lyp/svp scf=(tight,noincore,xqc) Test 
#IOP(5/87=12) Density=Current Pop=(MK,readradii) iop(6/33=2) iop(6/42=6)

apoCaM-CA-Ng.loop1.water3.frame1167 

   0  1 
C        112.24805       41.02137        5.62286
C        112.71227       41.66033        6.89998
O        111.95350       41.67735        7.85752
H        111.37685       41.57344        5.21310
H        113.05196       41.01867        4.85603
H        111.95999       39.96958        5.82610
N        113.97108       42.17877        6.98083
C        114.57416       42.75264        8.18658
C        114.23012       44.23390        8.35455
O        115.11802       45.07065        8.45217
C        116.10080       42.48041        8.15342
C        116.83914       43.07613        6.97042
O        116.27707       43.79569        6.15789
O        118.14149       42.78674        6.79646
H        114.56764       42.04839        6.15245
H        114.18281       42.21362        9.07606
H        116.23279       41.37770        8.10701
H        116.57551       42.84120        9.09077
N        112.93010       44.62051        8.39436
C        112.47905       46.00058        8.45744
C        112.44938       46.50286        9.88186
O        113.03190       47.55346       10.11454
C        111.14617       46.18384        7.70378
C        111.32271       45.67227        6.26202
C        110.12722       45.95426        5.36288
C        110.38294       45.33032        3.98160
N        109.18311       45.37460        3.15320
H        112.21534       43.90353        8.27812
H        113.19134       46.64131        7.88682
H        110.89683       47.26777        7.68810
H        110.30883       45.64338        8.19531
H        111.46835       44.57042        6.29332
H        112.22537       46.13295        5.80478
H        109.97162       47.05210        5.25977
H        109.22325       45.50077        5.81993
H        110.68124       44.26440        4.10165
H        111.21997       45.86594        3.47684
H        109.39875       44.94820        2.22322
H        108.42863       44.81193        3.61054
H        108.86412       46.36074        3.02152
N        111.88829       45.83218       10.93102
C        111.23156       44.51638       10.90655
C        112.18930       43.43276       11.34138
O        113.35003       43.71672       11.60426
C        109.95470       44.52955       11.76641
C        110.16243       45.21526       13.07634
O        110.95831       44.71851       14.06285
O        109.68426       46.32819       13.17420
H        112.05245       46.26174       11.85427
H        110.90390       44.23626        9.89561
H        109.51269       43.52756       11.92029
H        109.20258       45.11676       11.19487
N        111.77507       42.13264       11.38557
C        112.66684       41.04785       11.74756
C        113.16958       41.19128       13.15225
O        112.70412       42.05874       13.86686
H        110.80533       41.89421       11.13253
H        113.52738       41.05037       11.05017
H        112.13773       40.07494       11.66734
N        114.12905       40.35570       13.62567
C        114.65124       40.47351       14.98287
C        115.54060       39.26104       15.29802
O        116.29658       38.86166       14.42237
C        115.43294       41.81017       15.16280
C        115.24548       42.36213       16.55295
O        116.18926       42.38148       17.32731
O        114.04173       42.84650       16.96392
H        114.46887       39.61314       12.99679
H        113.76652       40.48661       15.64427
H        115.08257       42.60999       14.48238
H        116.50875       41.64090       14.92257
N        115.56212       38.61796       16.50324
C        114.82070       39.04290       17.67344
C        113.33774       38.85304       17.52248
O        112.90861       38.05229       16.70214
H        116.20574       37.81850       16.61604
H        115.05900       40.10216       17.87526
H        115.15126       38.46867       18.56511
N        112.48547       39.59265       18.28528
C        111.03786       39.48988       18.15314
C        110.51763       40.38852       17.03001
O        111.27824       41.14467       16.44623
C        110.32495       39.75976       19.51094
C        110.41465       41.21576       19.97731
O        110.85986       38.93594       20.51579
H        112.88696       40.28016       18.94004
H        110.78976       38.43771       17.88622
H        109.23843       39.54342       19.40053
H        110.52731       38.01629       20.34823
H        109.82036       41.34708       20.90620
H        111.46131       41.50175       20.19934
H        109.99453       41.89806       19.20918
N        109.20067       40.32591       16.68632
C        108.49972       41.11384       15.66929
C        108.45931       42.59380       15.98936
O        109.50737       43.21639       16.07536
C        109.02308       40.96521       14.20776
C        109.39096       39.52974       13.78372
C        107.95803       41.55448       13.24772
C        108.28053       38.49929       13.96264
H        108.62058       39.64155       17.19422
H        107.45683       40.72633       15.66811
H        109.95951       41.55496       14.08175
H        110.27695       39.19649       14.36407
H        109.69179       39.55431       12.71175
H        106.98352       41.03349       13.36595
H        107.77730       42.62796       13.45896
H        108.27494       41.47171       12.18965
H        108.64164       37.51859       13.58974
H        108.02557       38.39196       15.03626
H        107.37320       38.77672       13.39039
N        107.26152       43.23878       16.08758
C        107.15300       44.68676       16.20984
C        106.72706       45.04717       17.61275
O        105.84254       45.87238       17.79498
C        106.24552       45.28250       15.08853
C        104.81863       44.71223       15.06112
O        106.82759       45.04666       13.83362
H        106.39748       42.68068       16.05832
H        108.15580       45.15208       16.09456
H        106.14640       46.38322       15.25693
H        107.31365       45.87202       13.58070
H        104.29900       44.87323       16.02674
H        104.23151       45.21532       14.26308
H        104.82004       43.62770       14.82674
N        107.39717       44.50136       18.66837
C        107.14060       44.85995       20.05299
C        108.32805       45.64402       20.56169
O        109.43160       45.11537       20.57674
C        106.88367       43.60297       20.91057
C        106.69085       43.98814       22.38126
O        105.72676       42.94534       20.46007
H        108.15808       43.82947       18.48162
H        106.23853       45.50498       20.12153
H        107.75948       42.91107       20.86313
H        106.00934       42.30012       19.75999
H        106.46733       43.08931       22.99001
H        107.61662       44.45174       22.78663
H        105.85813       44.71668       22.48053
N        108.16372       46.94474       20.95164
C        109.25053       47.82748       21.35905
C        110.36909       47.75397       20.35072
O        111.47004       47.34168       20.69499
C        109.71701       47.55330       22.80450
C        108.61281       47.90967       23.80982
C        109.12562       47.81702       25.25242
C        108.04240       48.14353       26.29382
N        106.93494       47.18632       26.24962
H        107.22288       47.35978       20.88931
H        108.88291       48.87616       21.35440
H        110.58461       48.21841       23.01392
H        110.04324       46.49749       22.93490
H        107.75782       47.22371       23.64574
H        108.27474       48.95645       23.63571
H        109.95956       48.54355       25.38250
H        109.52050       46.79770       25.44794
H        107.65458       49.17684       26.14557
H        108.51560       48.09966       27.29961
H        106.31452       47.34168       27.07593
H        106.36419       47.32441       25.38553
H        107.30160       46.20719       26.28231
N        110.14104       48.13590       19.06257
C        111.13994       47.97648       18.02304
C        110.56028       47.20598       16.85510
O        110.91523       46.04268       16.74638
C        111.80148       49.30212       17.63799
C        112.69517       49.84578       18.75691
C        113.41075       51.07406       18.27911
O        113.17497       52.26433       18.86032
O        114.20509       50.99953       17.35412
H        109.21952       48.52537       18.80988
H        111.96710       47.33865       18.40520
H        111.04184       50.07458       17.42243
H        112.43497       49.11855       16.74272
H        113.45523       49.08921       19.05454
H        112.07089       50.08723       19.64402
N        109.70546       47.69003       15.90850
C        109.16602       49.02085       15.74075
H        108.41141       49.23459       16.52042
H        109.95379       49.78958       15.67127
H        108.65731       49.07153       14.74973
H        109.41458       47.02278       15.20429
Ca       112.33280       43.80492       15.71110
O        111.87875       43.75369       18.63088
H        112.21584       43.66471       19.55669
H        111.01728       44.23078       18.72092
O        113.77774       45.87165       17.17360
H        113.99088       45.86638       18.13967
H        114.64751       46.00791       16.72324
O        114.01226       45.19418       14.24959
H        114.96441       45.38387       14.07672
H        113.55096       45.35380       13.39260

Ca 1.0



