%chk=apoCaM-CA-Ng.loop2.water3.frame181.chk
%nprocshared=20
%mem=10GB
%nosave
#b3lyp/svp scf=(tight,noincore,xqc) Test 
#IOP(5/87=12) Density=Current Pop=(MK,readradii) iop(6/33=2) iop(6/42=6)

apoCaM-CA-Ng.loop2.water3.frame181 

   -2  1 
C        103.99578       64.87046       29.52465
C        105.24643       65.33995       28.84037
O        105.59257       64.78848       27.80608
H        103.13355       64.98039       28.83383
H        104.10234       63.80261       29.80824
H        103.78817       65.46175       30.44154
N        105.97962       66.36050       29.36681
C        107.18958       66.88983       28.75083
C        108.40957       66.66295       29.64579
O        109.45607       67.21333       29.34762
C        106.95200       68.38177       28.43206
C        108.04846       68.97567       27.58813
O        108.29158       68.51438       26.48356
O        108.75561       70.02883       28.03860
H        105.66463       66.79605       30.24821
H        107.39480       66.37821       27.78435
H        106.83759       68.95504       29.37770
H        106.00873       68.47891       27.85095
N        108.36238       65.82504       30.72725
C        109.49546       65.48085       31.58318
C        110.57743       64.71771       30.82558
O        110.53451       63.49768       30.84846
C        110.02304       66.68630       32.36988
H        107.47536       65.35548       30.95896
H        109.10772       64.77156       32.35122
H        109.20175       67.11835       32.97977
H        110.83715       66.36348       33.05332
H        110.41074       67.48382       31.70561
N        111.57846       65.35015       30.14561
C        112.63330       64.64825       29.41293
C        112.53867       64.89598       27.91053
O        113.45060       64.51573       27.18944
C        114.02201       65.00239       30.00011
C        114.45539       66.44265       29.88541
O        113.75993       67.28099       29.33505
O        115.64774       66.80725       30.39436
H        111.60416       66.37707       30.14205
H        112.53476       63.54942       29.53673
H        114.79246       64.37887       29.49554
H        114.02239       64.72415       31.07676
N        111.41755       65.44505       27.35900
C        111.20572       65.63513       25.93564
C        111.29838       64.32484       25.19398
O        112.04782       64.23576       24.23202
H        110.63152       65.69886       27.96390
H        111.93334       66.37226       25.53257
H        110.18235       66.04616       25.78843
N        110.59604       63.24193       25.62776
C        110.70064       61.93019       24.99986
C        110.00846       61.90306       23.65143
O        108.81114       62.13910       23.57253
C        110.11491       60.84279       25.91901
C        110.99145       60.64339       27.13021
N        112.24617       60.15090       26.98936
O        110.56810       60.91317       28.24223
H        110.02654       63.34278       26.48325
H        111.77579       61.68673       24.85666
H        110.07669       59.86866       25.38791
H        109.07859       61.12403       26.21036
H        112.61398       59.89807       26.06003
H        112.84939       60.00104       27.80976
N        110.72898       61.58475       22.54149
C        110.18057       61.46660       21.20349
C        109.22705       60.29990       21.07340
O        109.57861       59.19871       21.47383
H        111.74043       61.40961       22.64275
H        111.02570       61.25373       20.51354
H        109.71902       62.42470       20.88147
N        108.03535       60.45135       20.42628
C        107.15022       59.32146       20.13073
C        106.38209       58.82492       21.35585
O        105.67472       57.83428       21.22894
C        106.18608       59.65169       18.95217
C        105.13924       60.73483       19.25686
O        106.92043       59.97865       17.79643
H        107.82017       61.37945       20.03555
H        107.78409       58.48466       19.75916
H        105.61162       58.73051       18.71014
H        107.24279       60.91319       17.88124
H        105.60954       61.69763       19.54408
H        104.50744       60.90656       18.36002
H        104.47212       60.39238       20.06682
N        106.44884       59.46462       22.55967
C        105.69691       59.06138       23.74843
C        106.65040       58.72445       24.88741
O        107.85793       58.77193       24.69417
C        104.69893       60.19651       24.16097
C        105.42631       61.50959       24.56236
C        103.67530       60.43499       23.04303
C        104.49203       62.57022       25.14284
H        107.04539       60.29688       22.64769
H        105.09550       58.14620       23.55130
H        104.11672       59.84385       25.03596
H        105.95671       61.94731       23.69150
H        106.17821       61.28640       25.34601
H        104.17606       60.87380       22.16264
H        103.18539       59.47941       22.75731
H        102.87442       61.12728       23.36934
H        103.74973       62.91074       24.39399
H        103.96558       62.17080       26.03574
H        105.09014       63.45359       25.44825
N        106.16383       58.44152       26.13069
C        107.00147       58.29759       27.31246
C        106.63677       57.03962       28.11385
O        107.16061       56.85991       29.20317
C        106.83323       59.60620       28.11678
C        107.85880       59.84995       29.18839
O        107.85144       61.03331       29.82905
O        108.73038       59.03446       29.44428
H        105.14509       58.44861       26.28394
H        108.07486       58.24006       27.02415
H        105.80549       59.67564       28.53419
H        106.96973       60.45113       27.40831
N        105.78094       56.09473       27.61548
C        105.43802       54.86723       28.33070
C        104.53695       55.18207       29.51658
O        103.46878       55.72403       29.28401
C        104.75588       53.87843       27.35762
C        104.44970       52.54314       27.99524
C        105.24862       51.42495       27.70248
C        103.36298       52.39501       28.87701
C        104.97464       50.18789       28.29204
C        103.08772       51.15473       29.45737
C        103.89485       50.05253       29.16808
H        105.40281       56.21294       26.66542
H        106.38534       54.38113       28.64288
H        105.47617       53.72401       26.52344
H        103.82965       54.30086       26.90956
H        106.09145       51.51250       27.02813
H        102.71776       53.23123       29.10853
H        105.60048       49.33405       28.06879
H        102.24653       51.04879       30.13012
H        103.68182       49.09318       29.62046
N        104.85571       54.84206       30.80580
C        104.02660       55.13026       31.97183
C        103.64571       56.59632       32.12280
O        102.46920       56.87547       32.30664
C        104.89348       54.67014       33.15104
C        105.61642       53.49071       32.54664
C        106.00612       54.04183       31.17775
H        103.10912       54.50041       31.91297
H        105.67236       55.43232       33.37978
H        104.32277       54.45368       34.07992
H        106.46015       53.08194       33.14113
H        104.86331       52.67997       32.39856
H        106.90375       54.69608       31.21925
H        106.17185       53.16926       30.50935
N        104.58273       57.58942       32.04018
C        104.25867       59.01387       32.20201
C        103.25015       59.52214       31.17331
O        102.74200       60.62062       31.35377
C        105.52177       59.88525       32.06051
C        106.57935       59.66267       33.14940
C        107.82167       60.41872       32.78079
O        108.94322       59.73545       32.48636
O        107.80027       61.63457       32.66156
H        105.55907       57.31317       31.85627
H        103.81500       59.15500       33.21232
H        105.24923       60.96452       32.07210
H        105.95874       59.65075       31.06816
H        106.84021       58.58726       33.21741
H        106.19900       59.99868       34.13778
N        102.92965       58.80848       30.06247
C        101.95778       59.25967       29.09354
H        100.96668       59.37555       29.58117
H        102.27875       60.22624       28.65312
H        101.86446       58.50827       28.27963
H        103.40030       57.92286       29.88154
Ca       110.64413       60.74881       31.41477
O        111.76442       58.06882       31.33498
H        112.21188       57.92271       32.20602
H        112.46440       57.88630       30.65930
O        111.72434       61.68109       33.93442
H        110.95242       62.29233       33.82707
H        112.36617       61.96935       33.23737
O        113.34008       61.15962       30.25891
H        113.75375       60.27436       30.10285
H        113.76557       61.49186       31.08846

Ca 1.0



