%chk=apoCaM-CA-Ng.loop3.water3.frame908.chk
%nprocshared=20
%mem=10GB
%nosave
#b3lyp/svp scf=(tight,noincore,xqc) Test 
#IOP(5/87=12) Density=Current Pop=(MK,readradii) iop(6/33=2) iop(6/42=6)

apoCaM-CA-Ng.loop3.water3.frame908 

   0  1 
C         98.21819       -8.49116       39.74710
C         97.72115       -9.29576       40.90707
O         98.16069       -9.04133       42.01996
H         99.30884       -8.64579       39.61933
H         97.69480       -8.76850       38.80897
H         98.02380       -7.41605       39.95148
N         96.79269      -10.28022       40.72790
C         96.18363      -10.99344       41.83779
C         96.57722      -12.46790       41.82877
O         96.35629      -13.16232       40.84726
C         94.66003      -10.77876       41.79296
C         93.96523      -11.17484       43.06522
O         92.76171      -11.00013       43.17058
O         94.65268      -11.68520       44.10476
H         96.46928      -10.50231       39.77378
H         96.52491      -10.54036       42.78775
H         94.22502      -11.31568       40.92483
H         94.45833       -9.69687       41.65985
N         97.14957      -12.99867       42.94570
C         97.56605      -14.38693       43.14824
C         96.41798      -15.34498       42.88665
O         96.60335      -16.32600       42.18022
C         98.04734      -14.51479       44.61634
C         98.56342      -15.89862       45.03317
C         98.97970      -15.86293       46.51449
C         99.50066      -17.21948       47.00222
N         99.87487      -17.15310       48.41622
H         97.26411      -12.36326       43.74408
H         98.41710      -14.63274       42.47487
H         97.20372      -14.23968       45.28254
H         98.86740      -13.77981       44.77946
H         99.43539      -16.17571       44.40194
H         97.76241      -16.65722       44.89908
H         98.10083      -15.57489       47.13343
H         99.77608      -15.09893       46.65592
H        100.38853      -17.51483       46.40067
H         98.70990      -17.99063       46.86936
H        100.22568      -18.08855       48.72428
H        100.63224      -16.44530       48.55721
H         99.04385      -16.89688       48.99798
N         95.18832      -15.08425       43.40313
C         94.01799      -15.93158       43.22659
C         93.11749      -15.38673       42.12422
O         92.84468      -16.11875       41.18216
C         93.29849      -16.15891       44.59072
C         93.20627      -14.95436       45.52411
O         93.72235      -15.01721       46.62641
O         92.60942      -13.80757       45.14560
H         95.06483      -14.19637       43.90704
H         94.31412      -16.94312       42.86197
H         93.88807      -16.92715       45.13845
H         92.29627      -16.59838       44.40161
N         92.63939      -14.11812       42.15370
C         91.76970      -13.54404       41.14115
C         90.44938      -13.07212       41.71853
O         89.69216      -12.47167       40.96808
H         92.92358      -13.51022       42.91845
H         91.55763      -14.25912       40.31725
H         92.29213      -12.67067       40.69893
N         90.08625      -13.31254       43.01752
C         88.82647      -12.85443       43.60090
C         89.06566      -12.02383       44.85559
O         90.18101      -11.98279       45.33856
C         87.89633      -14.05230       43.92352
C         88.25129      -14.83287       45.17965
N         89.38788      -15.55917       45.29178
O         87.47134      -14.80796       46.12068
H         90.71962      -13.84888       43.61469
H         88.29913      -12.21997       42.85610
H         87.83007      -14.73286       43.04688
H         86.87949      -13.63229       44.08370
H         90.05608      -15.64348       44.51868
H         89.59290      -16.06584       46.16655
N         88.04550      -11.35935       45.46024
C         88.16348      -10.65172       46.73171
C         89.22695       -9.57150       46.74420
O         89.28361       -8.78008       45.81354
H         87.11691      -11.37685       45.01168
H         88.36059      -11.38070       47.54750
H         87.18590      -10.17023       46.94367
N         90.06827       -9.44597       47.81945
C         91.07688       -8.39110       47.92983
C         92.38824       -8.81930       47.21860
O         92.09484       -9.43210       45.99720
C         91.37558       -8.07671       49.42084
C         90.20632       -7.50310       50.18223
C         89.68366       -6.24297       49.84070
C         89.66353       -8.19546       51.27685
C         88.63913       -5.68554       50.58550
C         88.61611       -7.63853       52.01672
C         88.10302       -6.38218       51.67824
O         87.10367       -5.85316       52.41297
H         89.92735      -10.07413       48.62547
H         90.68958       -7.46450       47.44849
H         92.17925       -7.32244       49.52335
H         91.73770       -9.00557       49.90850
H         90.09704       -5.68224       49.01152
H         90.05636       -9.16236       51.56487
H         88.25425       -4.70895       50.31883
H         88.21003       -8.18061       52.86131
H         86.72978       -4.98097       52.22244
N         93.26457       -7.63387       47.04198
C         94.44950       -7.73516       46.16115
C         95.31860       -8.92350       46.56373
O         94.84902      -10.04811       46.50776
C         94.06316       -7.70647       44.64401
C         95.28792       -7.59025       43.69513
C         93.04985       -6.58151       44.34604
C         96.07169       -6.27483       43.76573
H         93.62553       -7.35203       47.97973
H         95.02960       -6.80203       46.32949
H         93.57274       -8.65975       44.37746
H         94.92965       -7.68894       42.64860
H         95.98272       -8.42874       43.89108
H         92.11342       -6.73096       44.92299
H         93.45825       -5.58537       44.61590
H         92.77776       -6.58101       43.26870
H         95.43014       -5.41257       43.48883
H         96.50490       -6.10885       44.77105
H         96.90559       -6.31165       43.03272
N         96.60851       -8.74720       46.97055
C         97.47952       -9.85207       47.37267
C         98.15563       -9.55800       48.69466
O         98.68121       -8.46603       48.86602
C         98.57199      -10.09030       46.31618
O         98.05366      -10.54134       45.09445
H         97.00881       -7.79681       46.94853
H         96.92076      -10.80718       47.45080
H         99.23508      -10.89968       46.69550
H         99.18142       -9.17845       46.15161
H         97.17440      -10.11725       44.94048
N         98.30308      -10.54650       49.62359
C         99.07732      -10.36284       50.84699
C         99.36629      -11.70784       51.51009
O         98.42115      -12.46462       51.68636
C         98.33751       -9.46553       51.84286
H         97.93219      -11.48294       49.40090
H        100.00416       -9.84450       50.56844
H         98.13363       -8.46759       51.40527
H         97.37768       -9.92914       52.15397
H         98.97274       -9.31840       52.74490
N        100.59486      -12.09725       51.97580
C        101.82104      -11.29965       51.99553
C        102.12804      -10.89665       53.43341
O        101.55189      -11.48744       54.33718
C        102.96210      -12.13578       51.39263
H        100.64396      -13.01912       52.44059
H        101.72713      -10.38255       51.41298
H        103.93048      -11.60468       51.38439
H        103.10327      -13.07012       51.97807
H        102.72036      -12.40951       50.34421
N        103.00845       -9.90882       53.77454
C        103.69743       -9.01582       52.84762
C        102.72011       -8.02604       52.23357
O        102.59739       -7.99281       51.01691
C        104.84162       -8.29439       53.59110
C        105.70738       -7.43274       52.66138
C        106.89149       -6.88193       53.40327
O        107.06304       -5.55151       53.51448
O        107.71202       -7.63915       53.89853
H        103.17990       -9.77118       54.78390
H        104.19020       -9.60677       52.05527
H        105.48869       -9.08464       54.03336
H        104.44457       -7.67012       54.42162
H        105.09979       -6.59762       52.25091
H        106.08244       -8.04803       51.81503
N        101.99748       -7.18176       53.02499
C        101.05718       -6.20490       52.50943
H        100.04770       -6.40935       52.92389
H        101.37300       -5.18781       52.82475
H        100.98965       -6.22063       51.40128
H        102.11487       -7.22702       54.04798
Ca        92.64575      -11.70082       46.08816
O         93.16126      -11.42742       49.14416
H         92.18961      -11.29568       49.28224
H         93.58441      -10.64721       49.58240
O         91.32077      -13.63391       48.12067
H         90.61050      -14.07822       47.59407
H         91.77776      -14.37098       48.59837
O         95.63361      -13.05253       47.52355
H         96.23146      -12.96986       48.30695
H         95.89501      -13.91439       47.11708

Ca 1.0



