%chk=apoCaM-CA-Ng.loop3.water5.frame488.chk
%nprocshared=20
%mem=10GB
%nosave
#b3lyp/svp scf=(tight,noincore,xqc) Test 
#IOP(5/87=12) Density=Current Pop=(MK,readradii) iop(6/33=2) iop(6/42=6)

apoCaM-CA-Ng.loop3.water5.frame488 

   0  1 
C         32.04631       49.75398       95.98637
C         30.64570       49.49964       96.48713
O         30.44285       49.46656       97.69105
H         32.72857       48.95577       96.35051
H         32.09000       49.75697       94.87559
H         32.41504       50.73499       96.35171
N         29.63210       49.26662       95.60748
C         28.26119       48.94197       96.00407
C         27.52520       50.14196       96.58801
O         27.50878       51.19345       95.96300
C         27.48457       48.42051       94.78471
C         26.09813       47.98262       95.16933
O         25.12439       48.50371       94.65108
O         25.92539       47.02029       96.09656
H         29.86671       49.25411       94.60233
H         28.29338       48.10422       96.73710
H         28.02113       47.54172       94.36614
H         27.43746       49.20889       94.00116
N         26.85488       50.02823       97.77307
C         26.14382       51.12715       98.42291
C         26.93099       51.45282       99.67250
O         26.44665       51.32142      100.78885
C         24.67347       50.75142       98.73415
C         23.81155       50.50526       97.48355
C         22.35551       50.20759       97.88827
C         21.45399       49.95055       96.67148
N         20.07578       49.68394       97.09022
H         26.88688       49.12536       98.27142
H         26.13695       52.04311       97.79086
H         24.21628       51.59622       99.29657
H         24.64854       49.84601       99.37975
H         24.22116       49.64631       96.91285
H         23.83028       51.40977       96.83619
H         21.94987       51.07423       98.45590
H         22.33337       49.31131       98.54607
H         21.83914       49.07571       96.10236
H         21.46502       50.83909       96.00187
H         20.04221       48.84588       97.71538
H         19.68480       50.51288       97.59477
H         19.48754       49.49714       96.24600
N         28.22388       51.83611       99.51279
C         29.17209       52.02527      100.59705
C         28.74564       53.16021      101.51616
O         28.41174       54.23344      101.03435
C         30.56765       52.26360       99.98778
C         31.65642       52.14834      101.00867
O         32.50034       51.27194      100.90688
O         31.71508       53.00792      102.03582
H         28.56912       51.93551       98.54484
H         29.23513       51.06969      101.16643
H         30.61095       53.24586       99.47055
H         30.75312       51.47256       99.22998
N         28.76366       52.98360      102.86723
C         28.33693       53.98008      103.83852
C         29.05320       55.30943      103.71147
O         28.37972       56.32419      103.60334
H         29.09964       52.08202      103.23963
H         28.52755       53.57717      104.85754
H         27.24153       54.14188      103.74126
N         30.41339       55.38387      103.71757
C         31.15666       56.64437      103.66326
C         31.79195       56.90773      102.30052
O         32.53562       57.87058      102.17468
C         32.14978       56.72264      104.84555
C         33.25269       55.69051      104.87957
N         34.10171       55.66970      105.93320
O         33.38897       54.87763      103.97792
H         30.94187       54.50466      103.76043
H         30.46503       57.50254      103.80842
H         31.55887       56.61758      105.78126
H         32.62523       57.72746      104.85580
H         33.99945       56.34744      106.70296
H         34.85944       54.97584      105.98819
N         31.43764       56.18111      101.20415
C         31.87154       56.49674       99.85342
C         33.33334       56.21668       99.62793
O         34.05354       57.07420       99.13780
H         30.75940       55.41405      101.30075
H         31.60658       57.54487       99.59364
H         31.31800       55.83219       99.15315
N         33.80926       54.98011       99.91347
C         35.12808       54.47777       99.56191
C         35.92253       54.15176      100.81662
O         35.35135       53.74817      101.81989
C         34.88894       53.23423       98.67689
C         36.10038       52.38065       98.40218
C         37.20845       52.86371       97.68777
C         36.10722       51.05451       98.86645
C         38.30742       52.02592       97.45013
C         37.20226       50.22658       98.63642
C         38.30938       50.70857       97.92874
O         39.37648       49.91568       97.70713
H         33.16387       54.31826      100.36551
H         35.70816       55.22672       98.97719
H         34.43432       53.55652       97.71422
H         34.13453       52.59968       99.18893
H         37.22338       53.88120       97.31792
H         35.26068       50.65735       99.41244
H         39.16296       52.40248       96.90432
H         37.18469       49.21061       99.01020
H         39.41110       49.00381       98.03168
N         37.27859       54.30428      100.80616
C         38.14323       54.05405      101.96012
C         37.84177       55.04902      103.07551
O         38.03039       54.69320      104.22917
C         39.64623       54.07286      101.51613
C         39.90273       52.86989      100.56634
C         40.63259       54.01541      102.70003
C         41.23751       52.92009       99.82289
H         37.71623       54.61327       99.92439
H         37.92516       53.03358      102.35209
H         39.82486       55.02856      100.97391
H         39.12430       52.84400       99.78797
H         39.82873       51.91759      101.13766
H         40.50054       54.88253      103.37019
H         40.49696       53.08382      103.28779
H         41.68164       54.07238      102.34663
H         41.31222       52.03640       99.15307
H         41.28650       53.83671       99.19767
H         42.10259       52.89348      100.51308
N         37.33783       56.29444      102.81999
C         36.95290       57.21701      103.88998
C         38.11794       57.67123      104.76409
O         37.85527       58.26505      105.80227
C         36.23194       58.44320      103.31228
O         37.10346       59.16404      102.48418
H         37.16992       56.57287      101.84212
H         36.23046       56.67598      104.53852
H         35.87973       59.09180      104.14592
H         35.35207       58.09724      102.72468
H         36.58163       59.93272      102.13712
N         39.41844       57.42572      104.42954
C         40.56815       57.75624      105.26545
C         40.46122       57.04500      106.60716
O         40.56774       57.66690      107.65349
C         40.73890       59.27782      105.39425
H         39.62326       56.95213      103.53961
H         41.47730       57.36646      104.75602
H         39.87460       59.74416      105.91008
H         41.65981       59.51248      105.96856
H         40.83232       59.72946      104.38357
N         40.18095       55.71274      106.61691
C         39.95283       54.92379      107.81783
C         40.68934       53.60786      107.70618
O         40.57806       52.96281      106.67391
C         38.45553       54.63777      107.94149
H         40.03204       55.24740      105.71159
H         40.24674       55.47273      108.73985
H         37.89794       55.59475      108.02940
H         38.07794       54.08273      107.05746
H         38.26039       54.03731      108.85679
N         41.40900       53.11385      108.75538
C         42.07443       51.81166      108.73392
C         43.22525       51.79090      107.73650
O         43.61807       50.71629      107.30000
C         41.06470       50.65791      108.47523
C         39.88856       50.67154      109.46379
C         38.92135       49.56114      109.16589
O         38.34732       49.51710      108.08871
O         38.66812       48.61830      110.09302
H         41.45790       53.66110      109.62747
H         42.52084       51.63078      109.73698
H         41.59286       49.68269      108.56314
H         40.66580       50.71766      107.44193
H         39.33689       51.63309      109.39288
H         40.27692       50.56181      110.49897
N         43.85684       52.94170      107.36828
C         44.96219       52.94805      106.43600
H         45.79427       52.32459      106.82697
H         44.62927       52.55256      105.45312
H         45.33172       53.98618      106.29564
H         43.56002       53.84607      107.76368
Ca        33.77213       51.82070      103.57713
O         31.94128       49.38010      103.67046
H         31.11965       49.49445      104.21069
H         31.63216       48.94744      102.83547
O         36.05698       52.49580      105.21144
H         35.92765       53.29306      104.63935
H         35.99249       52.83878      106.13744
O         31.37572       52.32371      105.24309
H         30.59708       51.74003      105.42312
H         31.72618       52.55949      106.13825
O         34.08124       50.18535      106.02429
H         34.85192       49.59401      106.21460
H         34.15796       50.91759      106.68638
O         35.53948       50.12909      102.05469
H         36.50003       50.36509      102.01496
H         35.51021       49.15456      101.88428

Ca 1.0



