%chk=apoCaM-CA-Ng.loop3.water4.frame1023.chk
%nprocshared=20
%mem=10GB
%nosave
#b3lyp/svp scf=(tight,noincore,xqc) Test 
#IOP(5/87=12) Density=Current Pop=(MK,readradii) iop(6/33=2) iop(6/42=6)

apoCaM-CA-Ng.loop3.water4.frame1023 

   0  1 
C         24.69401       45.62083       31.79159
C         24.13147       46.02630       30.45928
O         23.49295       47.06642       30.38338
H         25.39782       46.39929       32.15415
H         23.86689       45.51052       32.52452
H         25.23757       44.65477       31.72781
N         24.33055       45.25211       29.35434
C         23.79134       45.59719       28.04185
C         22.27035       45.66712       28.04185
O         21.72069       46.50925       27.35258
C         24.31091       44.65350       26.92856
C         23.99761       43.18043       27.05235
O         23.33586       42.67332       28.10720
O         24.37460       42.42173       26.17404
H         24.89614       44.39488       29.45038
H         24.17494       46.60660       27.76740
H         25.41696       44.75249       26.87940
H         23.89436       45.00703       25.96322
N         21.53153       44.83280       28.81907
C         20.07081       44.81843       28.86514
C         19.49811       44.34138       27.54421
O         19.87972       43.27040       27.08996
C         19.61435       43.86518       29.99021
C         20.00962       44.42713       31.36659
C         19.77670       43.41105       32.48468
C         20.13715       44.02839       33.84266
N         20.02841       43.04175       34.91469
H         22.03972       44.17483       29.42568
H         19.68000       45.83221       29.10462
H         20.08008       42.86714       29.82537
H         18.50890       43.73913       29.97158
H         19.42140       45.35281       31.55312
H         21.08741       44.69398       31.38692
H         20.42567       42.52671       32.29706
H         18.71512       43.08183       32.49492
H         19.45228       44.88131       34.04900
H         21.18044       44.41634       33.81627
H         20.71545       42.26904       34.75522
H         20.24847       43.50464       35.82603
H         19.05888       42.65252       34.95324
N         18.52761       45.05674       26.89743
C         17.90260       44.57204       25.66564
C         18.89442       44.55847       24.51483
O         20.00919       45.03608       24.67862
C         16.61291       45.36344       25.33783
C         16.82903       46.81406       25.01622
O         17.43511       47.13823       24.00844
O         16.29816       47.76424       25.80834
H         18.18119       45.92660       27.33060
H         17.57286       43.52542       25.85062
H         15.93902       45.28905       26.21933
H         16.08474       44.89681       24.47923
N         18.56562       43.99033       23.31932
C         19.51057       43.89924       22.21874
C         20.70216       43.06000       22.64704
O         20.48149       41.91298       23.00793
H         17.62585       43.58606       23.19112
H         19.77925       44.92542       21.90605
H         19.02431       43.40610       21.34927
N         21.98437       43.53071       22.70942
C         22.41155       44.85859       22.28187
C         23.82301       45.14852       22.79921
O         24.72694       44.38832       22.47716
C         22.40611       44.94215       20.73676
C         22.81774       46.31078       20.24966
N         23.94186       46.47354       19.51289
O         22.12989       47.28215       20.52611
H         22.69440       42.89684       23.11055
H         21.70999       45.60473       22.69447
H         21.40187       44.71830       20.32394
H         23.10064       44.17057       20.33758
H         24.53943       45.66905       19.27287
H         24.22293       47.41034       19.18748
N         24.12671       46.23229       23.57568
C         23.13487       47.21469       23.99264
C         23.71734       48.41490       24.71013
O         24.91485       48.49586       24.92891
H         25.11184       46.35907       23.85034
H         22.38091       46.72594       24.64408
H         22.63635       47.62123       23.08869
N         22.87043       49.42437       25.07122
C         23.31353       50.70729       25.62904
C         22.10258       51.51458       26.14877
O         20.98862       51.02234       26.08142
C         24.10211       51.44816       24.50989
C         24.84789       52.68377       24.93999
C         24.58017       53.92182       24.33317
C         25.84040       52.60500       25.93220
C         25.29173       55.06266       24.71476
C         26.54839       53.74779       26.31396
C         26.27715       54.98106       25.70415
O         26.95854       56.08982       26.05603
H         21.87468       49.27464       24.88068
H         23.96894       50.50413       26.50215
H         23.39978       51.67460       23.67745
H         24.88284       50.77930       24.09555
H         23.82598       54.00415       23.56059
H         26.06952       51.65958       26.40760
H         25.07981       56.01037       24.23635
H         27.31045       53.67201       27.07939
H         27.65337       56.07434       26.72962
N         22.24489       52.76632       26.68543
C         21.10885       53.54930       27.18606
C         20.74971       54.66517       26.22239
O         21.49452       54.93972       25.29350
C         21.39657       54.15450       28.60344
C         21.56225       53.10032       29.71925
C         22.63482       55.07903       28.59669
C         20.28852       52.29796       29.97591
H         23.17119       53.19714       26.70172
H         20.19929       52.91641       27.22613
H         20.53078       54.79156       28.89152
H         21.79665       53.63221       30.66881
H         22.40521       52.41367       29.49046
H         22.74632       55.57666       29.58325
H         23.57109       54.51515       28.40566
H         22.53428       55.87739       27.83201
H         19.44467       52.98312       30.21197
H         20.02952       51.67423       29.09974
H         20.44451       51.62460       30.84451
N         19.57782       55.34489       26.40439
C         19.16939       56.49158       25.60160
C         17.90780       56.20201       24.80883
O         17.32821       55.13837       24.95010
C         18.93198       57.68364       26.54539
O         17.88730       57.38542       27.43634
H         18.94735       55.04123       27.16240
H         19.96650       56.75731       24.87481
H         18.67862       58.58793       25.94855
H         19.85944       57.88872       27.12233
H         17.54249       58.24999       27.77890
N         17.41925       57.14532       23.95274
C         16.18559       57.01498       23.18874
C         14.99799       56.87487       24.12305
O         14.22286       55.93607       23.99665
C         16.28358       55.88221       22.15421
H         17.93761       58.03003       23.84875
H         16.03940       57.95997       22.61926
H         17.15036       56.05969       21.48312
H         16.40499       54.89153       22.63830
H         15.36276       55.85621       21.53272
N         14.80841       57.80542       25.10440
C         13.68333       57.83050       26.03377
C         13.60378       56.63169       26.97579
O         12.67118       56.60712       27.76826
C         12.36656       58.02030       25.26548
H         15.49269       58.57382       25.18352
H         13.80097       58.72772       26.68234
H         12.13891       57.15113       24.61625
H         11.52217       58.15360       25.97521
H         12.42897       58.93342       24.63561
N         14.52199       55.61619       26.98746
C         14.41227       54.48822       27.90690
C         14.48864       54.98696       29.33717
O         13.53799       54.78848       30.08105
C         15.48732       53.40550       27.62087
C         15.30462       52.20143       28.56805
C         16.20292       50.99939       28.28194
O         17.56260       51.32069       28.33126
O         15.93703       50.43216       27.03124
H         15.31624       55.63500       26.33961
H         13.42364       54.00241       27.73860
H         16.51319       53.82135       27.72915
H         15.36147       53.06382       26.56999
H         14.25595       51.84021       28.50472
H         15.49609       52.52381       29.61338
N         15.58720       55.65970       29.77908
C         15.71099       56.18600       31.12328
H         15.84362       57.28704       31.07370
H         14.81760       55.97195       31.74742
H         16.59804       55.73629       31.61492
H         16.37254       55.82037       29.13140
Ca        18.09628       50.34036       26.35181
O         18.11358       52.55983       24.57973
H         18.98291       52.84424       24.20224
H         18.16888       52.80820       25.53699
O         19.70790       48.08975       25.13268
H         20.26930       47.64785       25.81152
H         20.03794       47.73092       24.27118
O         19.19919       50.14639       23.09234
H         19.41198       49.40808       22.46823
H         18.38689       50.56511       22.71213
O         19.65071       48.65193       28.43500
H         19.91397       48.59704       29.38750
H         20.43674       49.05073       27.98410

Ca 1.0



