%chk=apoCaM-CA-Ng.loop4.water5.frame820.chk
%nprocshared=20
%mem=10GB
%nosave
#b3lyp/svp scf=(tight,noincore,xqc) Test 
#IOP(5/87=12) Density=Current Pop=(MK,readradii) iop(6/33=2) iop(6/42=6)

apoCaM-CA-Ng.loop4.water5.frame820 

   -3  1 
C         79.15454       91.67620       75.76385
C         80.56675       91.88102       76.22663
O         80.82855       92.85052       76.92285
H         78.49438       92.48874       76.13788
H         79.11719       91.67148       74.65463
H         78.77625       90.70628       76.14951
N         81.53928       90.99414       75.86837
C         82.93693       91.10085       76.28094
C         83.03784       90.91358       77.78772
O         83.41335       91.82670       78.50999
C         83.58909       92.40790       75.77404
C         83.47717       92.58740       74.28347
O         83.87924       93.62529       73.78217
O         82.88008       91.66716       73.49605
H         81.27765       90.19779       75.26665
H         83.51390       90.27181       75.81196
H         84.66502       92.41853       76.05145
H         83.11029       93.28533       76.25402
N         82.74357       89.69001       78.30766
C         82.82042       89.32824       79.72319
C         84.06947       88.46399       79.93660
O         84.34420       87.64694       79.06844
C         81.49869       88.62370       80.17443
C         81.15514       87.34643       79.36839
C         80.33921       89.63407       80.18518
C         80.06988       86.50166       80.04137
H         82.51294       88.94290       77.63588
H         82.93675       90.23833       80.34192
H         81.62775       88.29241       81.20586
H         82.05007       86.69488       79.31241
H         80.83919       87.60418       78.33572
H         79.41837       89.19345       80.61595
H         80.60474       90.49896       80.83063
H         80.12130       90.00016       79.16038
H         80.40101       86.20494       81.06100
H         79.10781       87.04480       80.11570
H         79.90036       85.57841       79.44987
N         84.95220       88.60896       80.98121
C         84.76540       89.42180       82.18448
C         86.08454       89.63872       82.91341
O         86.67836       88.68538       83.39986
C         83.81169       88.69754       83.16958
C         83.71675       89.34159       84.52293
O         84.09123       88.65643       85.62108
O         83.28704       90.47514       84.63520
H         85.81608       88.04528       80.93415
H         84.37585       90.42491       81.91726
H         84.16975       87.65346       83.30760
H         82.79668       88.66225       82.78359
N         86.54540       90.90689       83.08847
C         87.65430       91.26485       83.95484
C         87.23752       92.31306       84.98135
O         88.11394       92.81662       85.66885
H         86.06184       91.68048       82.60652
H         88.44510       91.71508       83.31754
H         88.08762       90.38226       84.47256
N         85.94045       92.74303       85.09261
C         85.53090       93.90912       85.86841
C         84.41883       93.59965       86.85857
O         84.60577       93.86644       88.03848
C         85.13899       95.06144       84.90943
C         84.05036       94.75948       83.90532
O         82.93017       95.50451       83.87843
O         84.20262       93.88831       83.06428
H         85.21082       92.28620       84.53565
H         86.39065       94.30377       86.45587
H         86.04391       95.34721       84.33153
H         84.83949       95.93996       85.52232
N         83.22921       93.05774       86.46721
C         82.13524       92.83948       87.39957
C         81.34439       94.10564       87.67933
O         80.49334       94.06254       88.55422
H         83.09001       92.78276       85.48688
H         82.53203       92.39221       88.33793
H         81.41642       92.10745       86.97146
N         81.50829       95.24246       86.93179
C         80.73937       96.47587       87.10570
C         79.23624       96.29998       86.87769
O         78.50248       97.24121       87.15242
C         81.06015       97.13418       88.47330
C         82.54314       97.55092       88.60817
C         82.97333       98.67611       87.68328
N         84.25227       99.11596       87.70811
O         82.17673       99.20867       86.92420
H         82.20327       95.24630       86.17891
H         81.04917       97.19351       86.32104
H         80.80445       96.43136       89.29273
H         80.44226       98.04720       88.61910
H         83.19166       96.66453       88.44005
H         82.71080       97.90589       89.64753
H         84.94299       98.69278       88.34431
H         84.55280       99.88408       87.08872
N         78.70623       95.17352       86.31220
C         77.27433       94.98550       86.06484
C         76.93522       94.86679       84.57535
O         75.76068       94.76462       84.26004
C         76.75743       93.72741       86.82672
C         77.47530       92.43153       86.39528
C         76.87850       93.91139       88.34464
H         79.34346       94.41944       86.02344
H         76.70097       95.86584       86.43141
H         75.67494       93.60455       86.60148
H         77.02684       91.55677       86.91123
H         77.37531       92.26983       85.30137
H         78.55403       92.45198       86.65560
H         76.30596       94.80644       88.66710
H         76.46276       93.02600       88.87165
H         77.93603       94.03689       88.64988
N         77.90372       94.83021       83.61375
C         77.63670       94.58733       82.19839
C         78.31418       95.64422       81.34218
O         79.46297       95.95914       81.60646
C         78.22109       93.20701       81.85368
C         78.07462       92.88268       80.39012
N         79.17026       92.69156       79.62304
O         76.96250       92.80315       79.89053
H         78.89116       94.89254       83.88968
H         76.54850       94.55001       81.97123
H         77.69821       92.42553       82.44755
H         79.29605       93.18578       82.13634
H         80.11869       92.76694       80.01999
H         79.06531       92.47170       78.62549
N         77.68357       96.16748       80.24029
C         78.36931       97.09545       79.33023
C         77.44243       97.62366       78.22767
O         76.34694       97.11214       78.06378
C         79.56390       96.36009       78.65061
C         80.60443       97.29601       78.10137
C         80.88388       97.35560       76.72743
C         81.33588       98.10074       78.99051
C         81.88017       98.21599       76.25244
C         82.33247       98.95307       78.51598
C         82.60952       99.01545       77.14765
O         83.57946       99.84167       76.70800
H         76.71428       95.87916       80.05430
H         78.70330       97.95112       79.95498
H         79.16469       95.67028       77.87256
H         80.11793       95.71566       79.35921
H         80.33391       96.74008       76.02735
H         81.14238       98.05640       80.05565
H         82.08834       98.25667       75.19109
H         82.89298       99.56047       79.21561
H         83.81006       99.91282       75.77128
N         77.84175       98.65587       77.41946
C         77.05203       99.13284       76.28726
C         77.91264       99.14501       75.02863
O         78.64640      100.10839       74.85048
C         76.53843      100.57043       76.53679
C         75.58437      100.68271       77.72712
C         75.12189      102.10562       77.87922
O         73.93639      102.38097       77.78729
O         76.01598      103.08673       78.11168
H         78.73632       99.12598       77.61244
H         76.16019       98.50096       76.12992
H         75.99636      100.91386       75.62588
H         77.40413      101.24985       76.70671
H         76.09732      100.37128       78.66121
H         74.70868      100.01833       77.55879
N         77.93987       98.15122       74.09387
C         77.28703       96.84688       74.17681
C         75.77941       96.94779       74.11760
O         75.25134       97.54849       73.19137
C         77.75629       95.92344       73.02299
C         79.28171       95.71852       73.03654
C         79.78497       94.71841       72.04017
O         81.11397       94.54713       71.95880
O         79.03161       94.02766       71.37175
H         78.54858       98.33069       73.28184
H         77.59992       96.34992       75.12284
H         77.45581       96.34398       72.03745
H         77.26162       94.93432       73.15124
H         79.59601       95.35924       74.04081
H         79.80444       96.67161       72.83029
N         75.01832       96.32391       75.05835
C         73.57341       96.34405       75.02158
H         73.21211       95.91029       74.06428
H         73.16684       95.73600       75.85792
H         73.20615       97.38630       75.12265
H         75.47684       95.78973       75.81202
Ca        82.08368       92.56536       71.60779
O         84.41057       91.92252       68.96216
H         85.32629       91.54656       68.93766
H         83.92216       91.43058       68.25531
O         81.28366       92.72889       68.61722
H         81.61012       93.18175       67.79955
H         81.03879       91.81775       68.31657
O         83.11524       95.42063       69.94807
H         82.28094       95.86607       69.65490
H         83.82910       95.85268       69.41544
O         85.69516       94.16367       71.04856
H         86.29566       94.20900       70.26256
H         86.18538       94.63990       71.76486
O         85.38150       91.20965       71.85695
H         85.57935       91.00985       72.80617
H         85.64580       90.38952       71.36986

Ca 1.0



