%chk=apoCaM-CA-Ng.loop3.water5.frame477.chk
%nprocshared=20
%mem=10GB
%nosave
#b3lyp/svp scf=(tight,noincore,xqc) Test 
#IOP(5/87=12) Density=Current Pop=(MK,readradii) iop(6/33=2) iop(6/42=6)

apoCaM-CA-Ng.loop3.water5.frame477 

   0  1 
C         44.42587       47.36038      110.96996
C         43.47235       46.43899      111.67207
O         42.42924       46.90347      112.10586
H         45.33415       46.82234      110.62730
H         43.92483       47.81046      110.08730
H         44.73492       48.17094      111.66309
N         43.76447       45.11192      111.81982
C         42.89426       44.14596      112.49230
C         42.76377       44.41355      113.99049
O         41.96639       43.74111      114.63208
C         41.51131       44.04528      111.80439
C         41.62721       43.67479      110.34983
O         42.18264       44.42287      109.56091
O         41.09945       42.51813      109.90614
H         44.64728       44.75401      111.42475
H         43.35734       43.13694      112.40674
H         40.93920       44.99012      111.89590
H         40.92238       43.25209      112.31529
N         43.57132       45.30598      114.63557
C         43.54179       45.54288      116.07597
C         43.34142       47.03406      116.38885
O         43.39044       47.41701      117.54734
C         44.85324       44.94718      116.63555
C         44.87975       44.76396      118.16351
C         46.01343       43.81185      118.60395
C         47.44380       44.31456      118.34413
N         47.77805       45.46773      119.17895
H         44.30726       45.79629      114.10524
H         42.70340       44.98144      116.54366
H         45.73214       45.52396      116.27543
H         44.91877       43.92185      116.20581
H         43.93192       44.26633      118.46419
H         44.93397       45.73755      118.69048
H         45.88205       42.84897      118.06150
H         45.90660       43.59169      119.68777
H         47.59173       44.55846      117.27034
H         48.14560       43.48732      118.59290
H         47.16805       46.28270      118.94730
H         47.67119       45.21638      120.18910
H         48.77442       45.73340      119.00650
N         43.08492       47.92763      115.38535
C         42.91868       49.36816      115.54730
C         41.75135       49.70840      116.46470
O         40.69396       49.10563      116.34891
C         42.74822       50.00317      114.14208
C         42.70522       51.49827      114.18702
O         43.70508       52.23325      113.67408
O         41.76159       52.06457      114.69802
H         43.00927       47.57551      114.42634
H         43.85683       49.79015      115.97198
H         41.83559       49.62054      113.63342
H         43.63071       49.71122      113.53182
N         41.87802       50.72067      117.37289
C         40.82913       51.14771      118.28791
C         39.55918       51.55833      117.57315
O         38.51817       50.98614      117.86310
H         42.77147       51.23385      117.41422
H         41.19883       52.01687      118.87584
H         40.60911       50.32475      119.00192
N         39.57245       52.52862      116.61317
C         38.37996       52.95311      115.87752
C         38.35130       52.40918      114.44559
O         37.77033       53.03933      113.57246
C         38.20550       54.49066      115.98102
C         39.31246       55.32100      115.35810
N         39.28059       56.66950      115.46950
O         40.23750       54.79243      114.75955
H         40.47083       52.97073      116.39403
H         37.47987       52.50493      116.35056
H         38.15193       54.75103      117.06055
H         37.24349       54.78849      115.51107
H         38.51317       57.13853      115.97212
H         40.02985       57.24826      115.06242
N         38.84311       51.16248      114.17574
C         38.69623       50.44244      112.91253
C         39.42942       51.00399      111.70370
O         39.39176       50.35766      110.66728
H         39.28830       50.64170      114.94158
H         37.61606       50.34149      112.67416
H         39.10284       49.41838      113.06643
N         40.09901       52.18499      111.73716
C         40.83447       52.73987      110.60234
C         41.15877       54.18458      110.91239
O         41.71303       54.46729      111.96334
C         42.12805       51.94080      110.32450
C         43.04105       52.69604      109.37627
C         42.65659       52.98699      108.05483
C         44.27751       53.16953      109.84726
C         43.49289       53.75081      107.22966
C         45.10527       53.93558      109.02534
C         44.71348       54.23491      107.71464
O         45.49612       54.99216      106.91938
H         40.07547       52.73211      112.60492
H         40.19873       52.72678      109.68863
H         41.89355       50.93119      109.92410
H         42.65163       51.79993      111.29161
H         41.70610       52.64100      107.66903
H         44.59177       52.96634      110.86292
H         43.18500       53.98332      106.21772
H         46.04550       54.30563      109.41406
H         46.33557       55.36315      107.22848
N         40.83489       55.15939      110.02257
C         40.95512       56.56624      110.35545
C         39.79363       56.90383      111.26585
O         40.00571       57.51402      112.30356
C         40.98866       57.47332      109.08989
C         42.15238       57.02583      108.16055
C         41.17254       58.94693      109.52099
C         42.33138       57.87902      106.90442
H         40.41352       54.89777      109.11807
H         41.92661       56.74944      110.86958
H         40.02816       57.38116      108.53571
H         41.95761       55.98942      107.81988
H         43.11319       57.02994      108.72112
H         42.14152       59.08053      110.04914
H         41.13905       59.62959      108.64913
H         40.36271       59.27522      110.20159
H         42.64372       58.91134      107.16332
H         43.13732       57.44036      106.27821
H         41.39239       57.90730      106.31387
N         38.52954       56.48285      110.95503
C         37.38006       56.79380      111.79303
C         37.02558       58.26982      111.70536
O         36.27009       58.73579      112.54536
C         36.16750       55.92942      111.41413
O         35.78020       56.18658      110.09144
H         38.38966       55.90121      110.11433
H         37.64940       56.53684      112.84318
H         35.32062       56.14899      112.10138
H         36.45497       54.85801      111.52556
H         35.13710       55.47133      109.84734
N         37.54093       59.06324      110.71202
C         37.32427       60.49931      110.55890
C         37.99543       61.33712      111.64780
O         37.94542       62.55561      111.55302
C         35.82824       60.81654      110.42253
H         38.11898       58.62909      109.97985
H         37.80907       60.80165      109.60306
H         35.68336       61.89061      110.18419
H         35.39016       60.21390      109.59777
H         35.27239       60.59757      111.35604
N         38.64629       60.76888      112.70283
C         39.29440       61.52495      113.76417
C         40.58005       62.16287      113.28611
O         41.39463       61.46596      112.69617
C         39.64643       60.57954      114.92156
H         38.67187       59.74794      112.78984
H         38.58965       62.27702      114.18286
H         40.35678       59.79045      114.59204
H         40.10502       61.15017      115.75630
H         38.72393       60.09237      115.30288
N         40.87772       63.45650      113.61458
C         42.19211       64.06687      113.40502
C         42.53577       64.27459      111.93565
O         43.66428       64.65777      111.65729
C         43.29006       63.26004      114.15377
C         42.97658       63.13952      115.65642
C         44.00584       62.31323      116.37089
O         44.72702       62.85010      117.37315
O         44.17432       61.14289      116.06569
H         40.17808       64.00919      114.13246
H         42.19032       65.08231      113.86063
H         44.27159       63.77138      114.04173
H         43.39946       62.24732      113.71603
H         41.99136       62.65376      115.80925
H         42.93694       64.15642      116.10397
N         41.60785       64.11681      110.94658
C         41.89259       64.34923      109.54410
H         42.95673       64.60825      109.36054
H         41.65054       63.43504      108.96416
H         41.26289       65.18674      109.17601
H         40.64021       63.85680      111.18124
Ca        43.58857       54.45086      114.06566
O         45.97240       53.47452      115.57953
H         46.44884       54.33906      115.65511
H         46.11408       53.19629      114.63977
O         42.75010       57.33936      113.43486
H         42.58993       58.11359      114.02985
H         42.06539       56.67736      113.70421
O         45.54065       55.75920      112.42135
H         45.04949       56.29798      111.75174
H         45.74194       54.90799      111.95807
O         42.82344       54.02802      117.06832
H         43.61756       53.60708      117.48301
H         42.34232       54.45175      117.82268
O         43.93577       56.67272      116.29309
H         44.62181       57.26987      115.90225
H         43.14713       57.25485      116.43347

Ca 1.0



