%chk=apoCaM-CA-Ng.loop1.water5.frame394.chk
%nprocshared=20
%mem=10GB
%nosave
#b3lyp/svp scf=(tight,noincore,xqc) Test 
#IOP(5/87=12) Density=Current Pop=(MK,readradii) iop(6/33=2) iop(6/42=6)

apoCaM-CA-Ng.loop1.water5.frame394 

   0  1 
C         -7.66922       78.74630       27.81512
C         -7.49256       77.25473       27.83537
O         -6.64772       76.75063       27.11175
H         -8.47080       79.07162       28.51223
H         -6.72145       79.23740       28.12058
H         -7.93923       79.07653       26.79095
N         -8.24845       76.48385       28.66500
C         -8.10262       75.03476       28.79043
C         -8.64042       74.23822       27.59047
O         -8.70111       73.02854       27.70797
C         -8.72743       74.56252       30.13071
C        -10.20771       74.77882       30.24365
O        -10.97072       74.19099       29.50080
O        -10.70283       75.58802       31.19940
H         -8.90745       76.96620       29.29573
H         -7.02298       74.79272       28.90850
H         -8.22677       75.11647       30.95554
H         -8.51787       73.48279       30.28807
N         -9.05224       74.80850       26.41922
C         -9.60415       74.03883       25.29424
C         -8.78293       74.22346       24.02487
O         -8.23228       75.30440       23.86556
C        -11.03532       74.55445       25.03586
C        -11.98542       74.13736       26.16235
C        -13.37500       74.75445       25.98119
C        -14.41368       74.19745       26.97127
N        -14.01256       74.35489       28.36948
H         -9.00759       75.83020       26.31109
H         -9.62700       72.96237       25.52681
H        -11.44187       74.15308       24.08698
H        -11.00732       75.66220       24.93287
H        -11.57620       74.47221       27.13272
H        -12.06230       73.03083       26.16311
H        -13.74895       74.53996       24.95647
H        -13.29069       75.85738       26.09868
H        -14.58363       73.11764       26.76303
H        -15.37177       74.73539       26.80060
H        -14.80880       74.07454       28.98587
H        -13.21440       73.71638       28.58059
H        -13.75295       75.34723       28.57231
N         -8.71020       73.30518       22.99817
C         -9.23635       71.93109       22.91822
C        -10.73094       71.82232       23.21574
O        -11.08216       71.48336       24.33548
C         -8.40860       70.91579       23.74057
C         -6.95388       70.94802       23.38203
O         -6.53086       70.73994       22.11773
O         -6.13324       71.20726       24.24602
H         -8.20126       73.61568       22.15472
H         -9.07740       71.57671       21.87639
H         -8.77981       69.89046       23.53114
H         -8.51111       71.11986       24.82417
N        -11.70322       72.04354       22.28750
C        -11.43493       72.32002       20.88728
C        -12.70586       72.48193       20.05884
O        -13.79399       72.49898       20.61548
H        -12.67897       71.95251       22.60821
H        -10.88226       71.44557       20.48249
H        -10.81505       73.23682       20.78904
N        -12.67583       72.55843       18.69600
C        -11.45816       72.46712       17.90044
C        -11.38093       71.10807       17.24006
O        -12.36212       70.37498       17.22971
C        -11.35328       73.64206       16.90907
C        -12.51234       73.71338       15.94977
O        -12.72518       72.80371       15.16420
O        -13.31784       74.79298       15.94928
H        -13.57825       72.60094       18.19570
H        -10.56644       72.52545       18.55399
H        -10.40819       73.56748       16.32951
H        -11.31930       74.58557       17.49639
N        -10.18667       70.66133       16.76820
C         -9.98532       69.31279       16.27439
C        -10.35920       68.29196       17.32798
O        -11.15768       67.41191       17.04000
H         -9.36311       71.28080       16.82314
H         -8.90961       69.18321       16.02447
H        -10.57728       69.15102       15.34718
N         -9.82284       68.36483       18.58066
C        -10.09905       67.39668       19.63876
C        -10.77818       68.05257       20.83910
O        -10.24871       68.99561       21.40698
C         -8.80425       66.65302       20.05122
C         -7.66106       67.56721       20.51311
O         -8.35793       65.89075       18.95888
H         -9.18100       69.14402       18.78899
H        -10.78254       66.60247       19.26535
H         -9.08240       65.96979       20.89020
H         -7.88140       65.10201       19.32912
H         -6.79804       66.94658       20.83345
H         -7.32425       68.21994       19.68437
H         -7.95703       68.20392       21.36579
N        -11.96075       67.55009       21.30119
C        -12.66924       68.03880       22.49019
C        -11.93244       67.75306       23.81308
O        -12.51165       68.03632       24.85020
C        -14.10420       67.39969       22.58262
C        -14.06014       65.85865       22.81514
C        -14.95550       67.77813       21.35476
C        -15.43143       65.23789       23.09127
H        -12.38117       66.77826       20.76631
H        -12.81213       69.13841       22.39424
H        -14.60931       67.85640       23.46374
H        -13.43837       65.64096       23.70914
H        -13.60384       65.33587       21.94983
H        -16.00523       67.44380       21.48003
H        -14.98109       68.88180       21.23545
H        -14.55692       67.32765       20.42304
H        -15.30707       64.15553       23.30879
H        -15.90286       65.72070       23.97369
H        -16.10368       65.32799       22.21502
N        -10.71776       67.13045       23.87540
C        -10.14919       66.58774       25.11560
C         -9.90714       67.56782       26.26601
O         -9.61768       67.07596       27.34837
C         -8.83524       65.81075       24.81928
C         -7.70493       66.73723       24.33683
O         -9.08811       64.82546       23.85027
H        -10.23352       66.90576       23.00016
H        -10.89614       65.85445       25.49445
H         -8.50662       65.31397       25.76172
H         -8.31683       64.20041       23.86460
H         -7.46077       67.50057       25.10135
H         -6.78538       66.14777       24.13918
H         -7.99115       67.26043       23.40768
N         -9.96493       68.92810       26.13793
C         -9.71112       69.86220       27.24779
C         -8.27731       69.69220       27.79432
O         -7.53851       68.85739       27.29128
C        -10.83103       69.71419       28.33519
C        -12.23086       69.95813       27.75176
O        -10.64815       70.59134       29.41564
H        -10.18714       69.32512       25.21921
H         -9.78593       70.89655       26.85528
H        -10.81490       68.68595       28.74843
H        -10.72137       71.51879       29.06824
H        -12.99756       69.84254       28.54638
H        -12.30613       70.98574       27.33847
H        -12.45912       69.23569       26.95134
N         -7.81104       70.44599       28.83394
C         -6.49952       70.23192       29.44275
C         -5.36858       70.86584       28.63819
O         -4.22195       70.52108       28.88799
C         -6.47754       70.80579       30.88144
C         -7.54439       70.15338       31.78391
C         -7.57998       70.79655       33.17586
C         -8.67478       70.15629       34.04368
N         -8.74420       70.79080       35.35954
H         -8.42614       71.14129       29.26651
H         -6.32467       69.13486       29.52211
H         -6.65692       71.90268       30.83108
H         -5.47777       70.63813       31.33975
H         -7.33252       69.06564       31.87612
H         -8.55142       70.27549       31.33406
H         -7.79656       71.88244       33.06759
H         -6.59245       70.67565       33.67186
H         -8.46381       69.07089       34.16856
H         -9.66089       70.26489       33.53835
H         -9.49716       70.33112       35.92128
H         -7.83303       70.68287       35.86103
H         -8.97405       71.80614       35.25690
N         -5.60028       71.86629       27.73511
C         -4.54672       72.58405       27.02081
C         -3.55104       73.16345       28.00964
O         -3.94517       73.95254       28.85851
C         -5.15163       73.75448       26.19146
C         -4.09673       74.53595       25.37433
C         -3.59474       73.69919       24.23967
O         -2.44739       73.28614       24.21440
O         -4.45883       73.39485       23.25759
H         -6.56434       72.16346       27.57619
H         -4.04028       71.86983       26.33513
H         -5.63434       74.45577       26.89965
H         -5.95104       73.38896       25.51222
H         -3.26620       74.85925       26.03565
H         -4.55576       75.45064       24.94086
N         -2.23530       72.82054       27.93863
C         -1.22373       73.35745       28.82529
H         -0.45583       73.88698       28.22336
H         -1.64226       74.07467       29.56253
H         -0.74052       72.52600       29.37823
H         -1.92590       72.15466       27.21479
Ca        -4.48523       71.63135       21.87235
O         -2.28541       73.63973       20.66445
H         -1.86267       73.69449       21.55773
H         -1.52844       73.49960       20.04202
O         -1.68441       70.22795       23.14465
H         -1.62441       71.17135       22.85128
H         -1.37355       70.23834       24.08457
O         -1.95871       70.45121       19.93267
H         -1.74720       69.49221       19.80622
H         -1.65414       70.88541       19.09655
O         -4.15473       68.33430       22.24272
H         -3.99658       68.47419       23.21007
H         -3.26631       68.09456       21.87669
O         -4.77004       69.35489       19.05590
H         -4.87553       68.39455       18.83889
H         -5.22580       69.46431       19.92771

Ca 1.0



