%chk=apoCaM-CA-Ng.loop1.water3.frame1191.chk
%nprocshared=20
%mem=10GB
%nosave
#b3lyp/svp scf=(tight,noincore,xqc) Test 
#IOP(5/87=12) Density=Current Pop=(MK,readradii) iop(6/33=2) iop(6/42=6)

apoCaM-CA-Ng.loop1.water3.frame1191 

   0  1 
C         34.01531        9.02821       82.43962
C         34.89886        9.94556       83.23211
O         34.37047       10.76336       83.96595
H         33.36258        9.63145       81.77374
H         34.60911        8.33226       81.81081
H         33.38306        8.43288       83.13038
N         36.25610        9.83672       83.15197
C         37.21260       10.69056       83.85827
C         37.31548       12.07872       83.22981
O         38.32915       12.40054       82.62492
C         38.58755        9.97866       83.98077
C         39.27657        9.58218       82.69679
O         38.79154        9.82778       81.60364
O         40.45090        8.92706       82.76409
H         36.62657        9.06132       82.58384
H         36.89691       10.81630       84.91414
H         38.43151        9.05032       84.57179
H         39.27639       10.63305       84.55961
N         36.31489       12.98531       83.40564
C         36.32676       14.32805       82.85842
C         36.58258       15.37875       83.93671
O         37.48752       16.17116       83.70921
C         35.04602       14.61123       82.04183
C         34.83901       13.55101       80.94724
C         33.68977       13.91843       80.00226
C         33.46502       12.80343       78.97015
N         32.44176       13.18284       77.99709
H         35.50551       12.72468       83.96412
H         37.16089       14.42862       82.12626
H         35.15667       15.61294       81.56992
H         34.14223       14.63646       82.68199
H         34.62557       12.57215       81.43050
H         35.76731       13.45525       80.34239
H         33.94991       14.86413       79.47753
H         32.75176       14.07518       80.57852
H         33.14925       11.87557       79.49850
H         34.41428       12.59168       78.42944
H         31.54135       13.40252       78.48106
H         32.76303       14.01549       77.45128
H         32.28807       12.38735       77.33588
N         35.89217       15.53176       85.11121
C         34.83555       14.67584       85.66063
C         35.40530       13.41291       86.33735
O         36.61459       13.24382       86.39253
C         33.98515       15.50384       86.65810
C         34.79297       15.95364       87.84077
O         35.33373       15.01092       88.62354
O         34.95557       17.13674       88.07817
H         36.16390       16.35316       85.67463
H         34.13902       14.38465       84.85331
H         33.13105       14.90051       87.02938
H         33.56319       16.38648       86.12891
N         34.55901       12.47579       86.86502
C         34.97691       11.22141       87.49115
C         35.73263       11.37932       88.79719
O         36.01502       12.49260       89.20072
H         33.54479       12.63447       86.77921
H         35.58205       10.62313       86.78108
H         34.05904       10.63917       87.72618
N         36.04974       10.27785       89.53873
C         36.72672       10.31032       90.84495
C         36.71504        8.94054       91.52838
O         36.66260        7.92713       90.84183
C         38.20707       10.77762       90.72713
C         38.40800       12.26312       90.86239
O         37.47397       13.03084       91.46027
O         39.47557       12.75738       90.53997
H         35.73412        9.36776       89.16629
H         36.14601       10.98306       91.49388
H         38.60413       10.40941       89.75496
H         38.85096       10.32759       91.51361
N         36.81917        8.80383       92.88798
C         36.84760        9.92111       93.82873
C         35.51509       10.63560       93.88728
O         34.56051       10.18062       93.27671
H         36.88125        7.85376       93.28446
H         37.65593       10.62412       93.54143
H         37.06821        9.54965       94.85225
N         35.38378       11.79010       94.60184
C         34.12920       12.54263       94.63518
C         33.73173       13.01419       93.23768
O         34.56744       13.08165       92.34750
C         34.24245       13.75969       95.60129
C         34.35625       13.31166       97.06212
O         33.11782       14.59506       95.48519
H         36.20413       12.14096       95.11853
H         33.32683       11.86385       95.00101
H         35.15619       14.33154       95.31476
H         33.41235       15.51325       95.72833
H         34.46562       14.20076       97.71977
H         33.43297       12.76963       97.36141
H         35.23072       12.64922       97.22059
N         32.42844       13.34614       93.00035
C         31.88196       13.91446       91.77284
C         32.48837       15.28809       91.55045
O         33.68289       15.38498       91.30743
C         31.99571       13.02073       90.48447
C         31.32219       11.62788       90.60534
C         31.29410       13.74611       89.31278
C         32.11039       10.60908       91.41687
H         31.75817       13.22225       93.77494
H         30.79137       14.05042       91.94961
H         33.05943       12.88034       90.19042
H         31.24844       11.17835       89.58922
H         30.28882       11.73187       91.00288
H         31.36737       13.15294       88.37625
H         30.21856       13.91396       89.54090
H         31.76321       14.72320       89.10309
H         33.11949       10.47554       90.96814
H         32.19573       10.90446       92.47533
H         31.58486        9.63117       91.38117
N         31.69571       16.39840       91.57736
C         32.19649       17.73603       91.29732
C         31.90413       18.67707       92.45306
O         31.33752       19.73953       92.23713
C         31.63476       18.24309       89.92491
C         30.10328       18.31637       89.88847
O         32.03585       17.43316       88.84576
H         30.68918       16.28768       91.76548
H         33.30645       17.72267       91.19858
H         32.04890       19.25961       89.74518
H         32.72026       16.79203       89.15288
H         29.78046       18.71473       88.90440
H         29.65872       17.30750       90.01042
H         29.69563       18.98261       90.67156
N         32.35133       18.38759       93.70822
C         32.28330       19.35551       94.79601
C         33.69531       19.86735       94.94144
O         34.52281       19.22094       95.56834
C         31.66784       18.74872       96.07545
C         31.50641       19.81171       97.16755
O         30.39498       18.22833       95.78549
H         32.87088       17.50898       93.86346
H         31.63405       20.21315       94.50974
H         32.32742       17.94225       96.47427
H         30.51976       17.28139       95.51391
H         32.48695       20.25371       97.44086
H         30.83237       20.62457       96.81732
H         31.05821       19.35655       98.07612
N         34.07577       20.88702       94.11926
C         35.44573       21.27006       93.80800
C         36.19683       20.14519       93.11262
O         35.72715       19.01633       93.06222
C         36.25599       21.75712       95.02720
C         35.64601       22.98086       95.71887
C         36.65830       23.66830       96.65499
C         37.13306       22.80071       97.83141
N         38.13473       23.51742       98.62314
H         33.34339       21.37356       93.57867
H         35.38704       22.10445       93.07255
H         37.25852       22.05600       94.65468
H         36.40051       20.93415       95.75770
H         34.71755       22.69534       96.25971
H         35.38204       23.73039       94.94164
H         36.18813       24.58948       97.06117
H         37.54174       23.97468       96.05171
H         37.59029       21.85605       97.46618
H         36.26066       22.54594       98.47160
H         39.00099       23.66028       98.05304
H         37.76400       24.44535       98.93154
H         38.37942       22.95150       99.46727
N         37.40418       20.41135       92.54496
C         38.26806       19.39604       91.96615
C         37.58926       18.60483       90.85555
O         37.56295       17.39271       90.98369
C         39.60383       20.02878       91.52134
C         40.62566       18.98459       91.05528
C         41.93366       19.64039       90.72203
O         43.04487       19.31447       91.40933
O         41.99725       20.47183       89.83031
H         37.74324       21.38554       92.56036
H         38.52832       18.68052       92.78069
H         40.03476       20.56166       92.39801
H         39.44619       20.77840       90.72509
H         40.25127       18.44603       90.15835
H         40.78895       18.24788       91.87130
N         37.00823       19.14157       89.74594
C         36.85291       20.54914       89.46627
H         36.25170       21.03240       90.26254
H         37.82996       21.04525       89.34882
H         36.30295       20.67048       88.50763
H         36.61150       18.49064       89.05817
Ca        36.66240       14.84830       90.42200
O         38.80880       15.10100       88.26332
H         37.96999       15.14391       87.74000
H         39.05004       14.14099       88.26445
O         36.10065       15.85814       93.17197
H         36.72649       15.45619       93.82513
H         35.45377       16.36736       93.72146
O         39.69523       15.73003       91.70580
H         39.95407       14.85844       92.09505
H         40.06692       15.71795       90.78797

Ca 1.0



