%chk=apoCaM-CA-Ng.loop1.water4.frame71.chk
%nprocshared=20
%mem=10GB
%nosave
#b3lyp/svp scf=(tight,noincore,xqc) Test 
#IOP(5/87=12) Density=Current Pop=(MK,readradii) iop(6/33=2) iop(6/42=6)

apoCaM-CA-Ng.loop1.water4.frame71 

   0  1 
C         58.99408       38.40967       83.01109
C         58.73722       38.91626       84.39985
O         59.65598       39.38539       85.05586
H         60.05623       38.55226       82.72273
H         58.74876       37.32754       82.96499
H         58.34930       38.95490       82.28880
N         57.47628       38.86250       84.90426
C         57.11159       39.36101       86.22704
C         57.50378       38.41638       87.36689
O         57.14830       38.71693       88.49802
C         55.60217       39.71197       86.26694
C         54.64366       38.55923       86.16375
O         53.75793       38.35155       87.15472
O         54.61028       37.85051       85.17209
H         56.73716       38.51987       84.27480
H         57.61987       40.33822       86.38876
H         55.38344       40.43851       85.45409
H         55.38758       40.21379       87.22633
N         58.23629       37.27794       87.16557
C         58.55086       36.31097       88.21791
C         60.04677       36.31813       88.50328
O         60.79613       36.19006       87.54430
C         58.11994       34.89613       87.77281
C         56.65752       34.78811       87.30349
C         55.63599       35.27068       88.34125
C         54.20506       35.05869       87.83221
N         53.22831       35.58678       88.78394
H         58.58896       37.06099       86.22348
H         57.98704       36.52911       89.13192
H         58.28804       34.19352       88.61868
H         58.75596       34.56037       86.92357
H         56.46223       33.72053       87.06053
H         56.52680       35.37941       86.37043
H         55.78296       36.35485       88.52519
H         55.77483       34.71987       89.29613
H         54.02370       33.97160       87.67994
H         54.07525       35.57305       86.85414
H         53.32066       35.10097       89.70461
H         53.37473       36.61232       88.92057
H         52.26544       35.43203       88.40721
N         60.61371       36.42361       89.74913
C         59.94976       36.49347       91.05235
C         59.09188       35.25731       91.31194
O         57.88508       35.39137       91.45871
C         59.19705       37.83166       91.28307
C         60.07111       39.05329       91.18916
O         61.25769       38.97204       90.91374
O         59.52975       40.26168       91.42575
H         61.64559       36.40261       89.78619
H         60.73422       36.48708       91.84015
H         58.77554       37.81595       92.31068
H         58.35316       37.96950       90.59265
N         59.62321       34.00239       91.41486
C         61.04210       33.70817       91.27195
C         61.30678       32.21803       91.36927
O         60.70478       31.49445       90.58836
H         58.97374       33.22239       91.60637
H         61.62105       34.28148       92.01357
H         61.37210       34.02028       90.26105
N         62.20830       31.64185       92.22385
C         63.05463       32.34376       93.18966
C         62.23020       32.93932       94.31742
O         61.55194       32.19559       95.01434
C         64.15726       31.40755       93.75835
C         63.66647       30.22437       94.56155
O         62.97703       29.35796       94.04840
O         64.02632       30.09838       95.85307
H         62.33249       30.62441       92.12114
H         63.60107       33.14722       92.64910
H         64.82142       32.01655       94.41007
H         64.77498       31.02596       92.91650
N         62.22218       34.28403       94.54536
C         61.37733       34.86372       95.57358
C         61.31582       36.36858       95.48096
O         61.00237       36.87005       94.41130
H         62.78440       34.90361       93.94179
H         61.70149       34.52179       96.58117
H         60.34037       34.50510       95.40466
N         61.48303       37.14517       96.59408
C         61.21658       38.58484       96.64746
C         59.89644       38.91770       95.96807
O         59.85002       39.80997       95.13203
C         62.42052       39.44494       96.16713
C         62.87829       39.18056       94.72781
O         63.50531       39.22983       97.03268
H         61.65936       36.67111       97.49288
H         61.07226       38.85238       97.71827
H         62.09720       40.51247       96.24267
H         64.02191       40.07815       97.06797
H         63.70344       39.87969       94.47619
H         63.26830       38.14774       94.62272
H         62.05842       39.34055       93.99899
N         58.77766       38.18987       96.25296
C         57.52882       38.41070       95.54029
C         56.81541       39.58926       96.16272
O         56.26708       39.45116       97.24769
C         56.63520       37.12943       95.51518
C         57.40345       35.96401       94.83874
C         55.30730       37.40701       94.77736
C         56.66559       34.62427       94.85907
H         58.84844       37.40783       96.92143
H         57.76938       38.63671       94.47563
H         56.40016       36.84030       96.56360
H         58.36223       35.79944       95.36626
H         57.63538       36.23622       93.79120
H         54.74741       38.22604       95.27046
H         55.49581       37.69067       93.71951
H         54.63828       36.52430       94.80123
H         56.44698       34.32384       95.90552
H         55.72264       34.66415       94.27868
H         57.30857       33.84681       94.39402
N         56.78856       40.78599       95.51678
C         56.00155       41.92690       95.96912
C         54.99317       42.35332       94.90206
O         54.18030       43.21987       95.19346
C         56.91593       43.07308       96.45599
C         57.90291       43.57421       95.39958
O         57.63914       42.62108       97.57445
H         57.34482       40.88527       94.65470
H         55.38438       41.63502       96.84819
H         56.25099       43.91946       96.75504
H         57.69056       43.37311       98.22104
H         57.36640       43.93593       94.49906
H         58.49669       44.41220       95.82346
H         58.61266       42.77042       95.11162
N         54.93405       41.74423       93.67498
C         53.87603       41.94813       92.68990
C         53.86598       43.37680       92.14660
O         54.70547       44.17994       92.52998
C         52.51127       41.45053       93.25717
C         52.65317       40.06767       93.91341
O         51.57514       41.33454       92.21749
H         55.62159       41.02490       93.41839
H         54.10687       41.28862       91.82146
H         52.14598       42.17404       94.01952
H         50.67620       41.27272       92.63203
H         53.32286       40.11665       94.79600
H         51.66368       39.71259       94.26850
H         53.06056       39.33073       93.18799
N         52.95770       43.74476       91.19918
C         52.96517       45.03576       90.52316
C         54.25029       45.15848       89.72882
O         54.99388       46.11002       89.92227
C         51.67590       45.21506       89.66372
C         51.43303       44.19357       88.52785
C         50.01204       44.33321       87.95767
C         49.69700       43.32919       86.83144
N         49.77738       41.93403       87.27532
H         52.24906       43.06565       90.91785
H         52.92283       45.84738       91.28451
H         51.65776       46.23862       89.22902
H         50.82489       45.14076       90.37686
H         51.52982       43.16688       88.92128
H         52.17355       44.34260       87.71417
H         49.88203       45.36111       87.55542
H         49.27256       44.18517       88.77581
H         50.38531       43.48848       85.97306
H         48.65985       43.53003       86.48109
H         50.76497       41.66729       87.48653
H         49.17590       41.78224       88.11753
H         49.43852       41.31267       86.50563
N         54.59476       44.17158       88.85958
C         55.82170       44.13010       88.08443
C         55.44088       44.14846       86.61804
O         54.74948       43.24121       86.17218
C         56.56419       42.81514       88.40114
C         57.13533       42.68353       89.82324
C         58.43249       43.41747       90.02663
O         59.15899       43.15929       91.12977
O         58.89716       44.13941       89.15898
H         53.95340       43.37236       88.74850
H         56.47808       45.00000       88.30427
H         57.38440       42.63043       87.67232
H         55.82378       42.00571       88.28345
H         57.38613       41.60898       89.95594
H         56.38702       42.94989       90.59915
N         55.84470       45.16741       85.80999
C         55.50261       45.24984       84.40376
H         54.91541       46.17413       84.22247
H         56.43304       45.28800       83.80048
H         54.90009       44.38225       84.06020
H         56.41240       45.93205       86.20491
Ca        61.36326       43.66622       91.13181
O         60.04056       41.00842       88.04868
H         60.56734       40.23771       87.71948
H         59.39356       40.61182       88.68355
O         63.78668       40.75711       91.17478
H         63.79418       40.50455       92.13141
H         64.18513       39.97793       90.71166
O         62.01601       43.86105       87.90209
H         61.05845       43.63093       87.80521
H         62.02303       44.64392       88.50829
O         61.48213       42.00505       93.63881
H         60.53372       41.81223       93.43162
H         61.46131       42.88458       94.09213

Ca 1.0



