%chk=apoCaM-CA-Ng.loop1.water1.frame944.chk
%nprocshared=20
%mem=10GB
%nosave
#b3lyp/svp scf=(tight,noincore,xqc) Test 
#IOP(5/87=12) Density=Current Pop=(MK,readradii) iop(6/33=2) iop(6/42=6)

apoCaM-CA-Ng.loop1.water1.frame944 

   0  1 
C         97.85120       -2.89040       65.42892
C         97.34588       -3.30830       66.77827
O         96.40739       -4.08835       66.85486
H         98.91764       -3.17885       65.32212
H         97.26314       -3.36917       64.61773
H         97.76278       -1.78736       65.32843
N         97.92848       -2.80180       67.89946
C         97.48236       -3.11688       69.25503
C         96.00362       -2.80964       69.43923
O         95.58725       -1.68334       69.24854
C         98.39200       -2.45071       70.32862
C         98.96506       -1.06588       70.03639
O         98.25053        0.08242       69.97252
O        100.17342       -0.98022       69.87712
H         98.72036       -2.15648       67.76439
H         97.59285       -4.21348       69.41406
H         99.28391       -3.11733       70.38650
H         97.91577       -2.49799       71.33175
N         95.13523       -3.81649       69.75046
C         93.69318       -3.63225       69.87163
C         93.33619       -3.08164       71.24635
O         93.74955       -3.66206       72.24064
C         92.98318       -4.98123       69.63172
C         91.46420       -4.81152       69.46723
C         90.79089       -6.15845       69.18209
C         89.28712       -5.98311       68.93323
N         88.64389       -7.27500       68.69623
H         95.50682       -4.77604       69.83084
H         93.34737       -2.96366       69.05101
H         93.21642       -5.69270       70.45456
H         93.37054       -5.41127       68.68071
H         91.27382       -4.12449       68.61220
H         91.02406       -4.36677       70.38567
H         90.94957       -6.83336       70.05110
H         91.24978       -6.62174       68.28055
H         89.13342       -5.32847       68.04567
H         88.81515       -5.49565       69.81477
H         89.06661       -7.74212       67.86119
H         88.75383       -7.88808       69.53654
H         87.62461       -7.12322       68.51968
N         92.51706       -1.99901       71.37476
C         92.11689       -1.43870       72.67514
C         90.92163       -0.48384       72.54946
O         90.57434       -0.12083       71.43427
C         93.34642       -0.78461       73.37642
C         94.22898        0.10794       72.54935
O         94.06412        0.26878       71.22719
O         95.21853        0.59219       73.07591
H         92.14180       -1.59235       70.50538
H         91.72944       -2.26861       73.30295
H         94.01033       -1.59747       73.73392
H         93.06911       -0.19931       74.25657
N         90.18958       -0.03081       73.62026
C         90.37268       -0.36209       75.03184
C         89.88411       -1.73058       75.44920
O         89.30959       -2.46231       74.65702
H         89.43120        0.63948       73.41648
H         89.76759        0.34873       75.63453
H         91.40106       -0.20432       75.36642
N         90.07214       -2.10910       76.74734
C         89.51838       -3.31478       77.35592
C         88.02619       -3.11459       77.55518
O         87.63947       -2.09838       78.11867
C         90.20599       -3.56592       78.72152
C         89.81559       -4.86027       79.39545
O         90.38503       -5.18566       80.57134
O         89.01320       -5.62885       78.88917
H         90.62460       -1.47826       77.34991
H         89.74516       -4.19854       76.71868
H         89.99603       -2.72208       79.41444
H         91.30388       -3.61150       78.55334
N         87.12583       -4.04982       77.14542
C         85.69182       -3.86096       77.29272
C         85.11881       -2.94519       76.23270
O         83.91626       -2.71956       76.26285
H         87.46285       -4.93731       76.74476
H         85.45671       -3.49874       78.31830
H         85.18325       -4.83951       77.15903
N         85.89181       -2.43819       75.22659
C         85.36121       -1.67921       74.10510
C         85.99408       -0.29821       74.05073
O         86.96277       -0.04076       74.75449
C         85.61411       -2.51979       72.81936
C         84.90899       -2.03011       71.55139
O         86.99138       -2.69156       72.58351
H         86.89672       -2.64595       75.20380
H         84.26472       -1.54287       74.23390
H         85.18509       -3.52710       73.01540
H         87.38350       -1.79836       72.39831
H         85.09728       -2.75187       70.72780
H         83.81423       -1.96908       71.72287
H         85.27950       -1.04772       71.21940
N         85.44412        0.66489       73.26839
C         85.95811        2.02200       73.15852
C         85.09052        2.91276       74.02739
O         85.63434        3.57915       74.89637
C         86.03829        2.42931       71.65379
C         87.09150        1.53283       70.94024
C         86.39612        3.91840       71.49008
C         87.16292        1.71428       69.42289
H         84.56581        0.44609       72.77330
H         86.98966        2.09810       73.57425
H         85.03859        2.26928       71.19021
H         86.85218        0.46890       71.11579
H         88.09863        1.71752       71.37345
H         85.63546        4.55946       71.98198
H         87.39219        4.13474       71.93036
H         86.40336        4.21055       70.42007
H         87.90419        0.99826       69.00654
H         86.17499        1.50392       68.96160
H         87.49497        2.73437       69.14635
N         83.73380        2.92940       73.89707
C         82.86207        3.71639       74.76262
C         82.11112        4.71680       73.92462
O         81.59442        4.37459       72.87061
C         81.89353        2.83146       75.57230
C         82.66438        1.91723       76.53297
O         81.05283        3.66737       76.33046
H         83.29250        2.34812       73.16921
H         83.45264        4.27986       75.51923
H         81.28462        2.22026       74.86693
H         80.23927        3.14462       76.55248
H         83.27851        2.52599       77.23354
H         81.95185        1.31368       77.13379
H         83.33162        1.22833       75.97525
N         82.01438        5.99495       74.37091
C         81.41900        7.07883       73.61603
C         82.46970        8.16394       73.46349
O         82.75836        8.54289       72.33614
C         80.11535        7.55808       74.30186
C         79.39846        8.63610       73.48256
O         80.36285        8.04550       75.59633
H         82.39204        6.21028       75.30459
H         81.11827        6.73048       72.60174
H         79.41388        6.68797       74.34300
H         80.06574        7.34811       76.23815
H         79.16052        8.25423       72.46669
H         78.44654        8.91829       73.98082
H         80.02494        9.54374       73.37859
N         83.10293        8.69181       74.55547
C         84.08253        9.76701       74.47607
C         85.43235        9.37413       75.06046
O         85.58431        8.29885       75.62644
C         83.54676       10.97162       75.27902
C         82.21025       11.48708       74.73240
C         81.68823       12.71152       75.49679
C         81.29855       12.39648       76.95163
N         80.76288       13.58548       77.61211
H         82.86114        8.34958       75.49773
H         84.24993       10.06761       73.41903
H         84.27344       11.80987       75.24860
H         83.42940       10.65327       76.33714
H         81.44325       10.68782       74.77225
H         82.36292       11.77901       73.67083
H         80.78185       13.07628       74.96745
H         82.45397       13.51730       75.47210
H         82.17883       12.04057       77.52701
H         80.52696       11.59418       76.95960
H         79.91893       13.93245       77.10113
H         80.48922       13.33996       78.59090
H         81.49149       14.33541       77.64186
N         86.45101       10.27688       74.99135
C         87.73220       10.15516       75.67500
C         88.54151        8.93476       75.24164
O         88.84681        8.13581       76.11554
C         88.51612       11.48539       75.53179
C         89.79112       11.54784       76.37847
C         90.42072       12.90914       76.26626
O         90.55584       13.68229       77.36076
O         90.80348       13.32525       75.18386
H         86.26935       11.15366       74.47794
H         87.51156       10.05160       76.76258
H         87.84601       12.30472       75.87870
H         88.77294       11.69202       74.47419
H         90.51833       10.77924       76.04155
H         89.53298       11.35609       77.44242
N         88.96786        8.68422       73.96791
C         88.67319        9.47335       72.79122
H         87.99111       10.31580       72.98392
H         89.62082        9.86343       72.36380
H         88.18469        8.82220       72.03684
H         89.55078        7.84604       73.81381
Ca        96.08320        0.60262       70.30254
O         93.85187        2.42071       68.68477
H         93.72800        1.74832       67.96845
H         93.00307        2.93051       68.69664

Ca 1.0



