%chk=apoCaM-CA-Ng.loop4.water4.frame728.chk
%nprocshared=20
%mem=10GB
%nosave
#b3lyp/svp scf=(tight,noincore,xqc) Test 
#IOP(5/87=12) Density=Current Pop=(MK,readradii) iop(6/33=2) iop(6/42=6)

apoCaM-CA-Ng.loop4.water4.frame728 

   -3  1 
C         95.46032       96.29832      -17.17859
C         96.48440       95.61542      -18.03422
O         96.28192       94.47198      -18.41250
H         94.59115       95.63234      -16.99165
H         95.91800       96.56839      -16.20322
H         95.10516       97.22105      -17.68313
N         97.62277       96.27910      -18.38448
C         98.71441       95.71464      -19.18033
C         98.18042       95.23891      -20.51890
O         98.45789       94.11607      -20.92395
C         99.41525       94.57239      -18.40298
C         99.65819       94.97037      -16.97701
O        100.51996       95.77590      -16.66648
O         98.71307       94.58569      -16.10356
H         97.73053       97.25513      -18.06786
H         99.45214       96.52841      -19.35259
H        100.34025       94.20774      -18.89862
H         98.71202       93.70962      -18.36896
N         97.29426       96.01385      -21.20622
C         96.58492       95.49906      -22.37174
C         97.50536       95.46374      -23.58956
O         98.46998       96.21565      -23.60453
C         95.24520       96.25987      -22.62933
C         95.47307       97.74035      -23.03054
C         94.33286       96.12696      -21.39033
C         94.17777       98.49744      -23.33153
H         97.02285       96.91871      -20.79767
H         96.30145       94.45803      -22.10358
H         94.72076       95.76097      -23.47246
H         96.09451       97.76576      -23.95073
H         96.01290       98.29044      -22.23300
H         94.75210       96.65848      -20.51166
H         93.31780       96.52437      -21.59112
H         94.21393       95.05904      -21.11784
H         94.42319       99.52595      -23.66934
H         93.60337       97.98450      -24.13132
H         93.54717       98.59013      -22.42342
N         97.34029       94.60143      -24.63779
C         96.29171       93.59185      -24.73255
C         96.83325       92.18304      -24.58037
O         96.02451       91.30546      -24.33554
C         95.50751       93.74040      -26.05192
C         96.37550       93.56452      -27.27597
O         97.01737       92.40189      -27.50327
O         96.49473       94.47797      -28.07612
H         98.03868       94.64070      -25.39672
H         95.56417       93.71146      -23.91616
H         95.04281       94.74971      -26.07351
H         94.68857       92.99032      -26.08548
N         98.16239       91.88832      -24.70124
C         98.73109       90.54947      -24.63732
C         98.33425       89.69647      -25.82737
O         99.16881       89.47168      -26.69275
H         98.83526       92.64859      -24.86672
H         98.49299       90.04751      -23.67513
H         99.83792       90.66398      -24.67769
N         97.09721       89.13505      -25.90783
C         96.65327       88.27696      -26.99488
C         95.39216       88.80583      -27.67738
O         94.91204       88.12744      -28.57378
C         96.50432       86.83124      -26.44834
C         95.74301       86.68976      -25.15145
O         94.55484       86.93566      -25.08494
O         96.38333       86.25905      -24.04742
H         96.44368       89.25174      -25.12690
H         97.41578       88.21970      -27.80239
H         97.53332       86.46886      -26.23888
H         96.06829       86.16202      -27.22089
N         94.81024       90.00642      -27.35809
C         93.57946       90.47705      -27.99030
C         92.36866       89.63972      -27.60499
O         91.29853       89.86043      -28.15249
H         95.24276       90.61889      -26.65717
H         93.71773       90.46856      -29.09409
H         93.37010       91.52456      -27.68338
N         92.47338       88.66254      -26.65978
C         91.42766       87.73963      -26.24672
C         90.33748       88.39727      -25.41916
O         89.37409       87.71759      -25.09150
C         90.93822       86.85641      -27.41942
C         92.14308       86.16900      -28.10034
C         91.78999       85.10240      -29.10228
N         92.78256       84.46094      -29.76373
O         90.62511       84.80016      -29.31445
H         93.36777       88.53876      -26.19004
H         91.88586       87.02137      -25.53025
H         90.36388       87.44013      -28.16981
H         90.26910       86.07518      -26.99623
H         92.78113       85.68825      -27.32682
H         92.73847       86.94202      -28.62410
H         93.77007       84.70719      -29.59476
H         92.56919       83.71768      -30.44480
N         90.48790       89.66140      -24.91757
C         89.56499       90.25897      -23.95609
C         90.24966       90.51037      -22.60493
O         89.58675       91.02283      -21.71537
C         88.96167       91.58199      -24.52026
C         89.99377       92.71678      -24.64191
C         88.28443       91.35214      -25.87828
H         91.32112       90.21056      -25.17050
H         88.71447       89.56910      -23.76111
H         88.17905       91.92882      -23.80868
H         89.50245       93.64279      -25.00872
H         90.42062       92.95231      -23.64815
H         90.81620       92.45401      -25.33805
H         87.50365       90.56797      -25.79379
H         87.80065       92.29034      -26.22587
H         89.02798       91.04125      -26.64327
N         91.57272       90.21746      -22.38912
C         92.30256       90.60540      -21.18269
C         92.89681       89.39746      -20.47556
O         93.52756       88.56949      -21.11356
C         93.41201       91.59889      -21.56497
C         92.82504       92.85055      -22.16947
N         91.98354       93.63696      -21.45492
O         93.11005       93.15706      -23.31673
H         92.12638       89.76354      -23.12785
H         91.63560       91.12758      -20.46632
H         94.10996       91.11779      -22.28520
H         93.98985       91.88881      -20.66095
H         91.73562       93.40576      -20.48204
H         91.58047       94.48834      -21.87288
N         92.72678       89.26714      -19.12503
C         93.17551       88.11866      -18.32621
C         92.71249       88.25539      -16.86640
O         92.15471       89.27978      -16.50274
C         94.71440       87.89344      -18.37266
C         95.51293       88.88389      -17.55472
C         95.59221       90.23906      -17.91161
C         96.19314       88.43718      -16.40547
C         96.33402       91.12833      -17.12577
C         96.92686       89.32713      -15.62336
C         96.99893       90.67286      -15.97737
O         97.70811       91.51525      -15.20504
H         92.20631       90.02211      -18.66072
H         92.68818       87.21882      -18.76022
H         95.10529       87.85786      -19.40894
H         94.89684       86.87850      -17.95843
H         95.08764       90.60682      -18.79438
H         96.15027       87.39832      -16.10399
H         96.39154       92.16884      -17.40692
H         97.43788       88.97127      -14.73731
H         97.77134       92.45406      -15.41060
N         92.92851       87.25291      -15.96434
C         92.52655       87.35736      -14.56360
C         93.75709       87.21150      -13.68238
O         94.34435       86.13920      -13.69522
C         91.47172       86.27758      -14.26682
C         90.94632       86.34699      -12.82400
C         89.85014       85.35000      -12.55389
O         89.29297       85.30086      -11.32967
O         89.45139       84.59049      -13.42406
H         93.38953       86.38601      -16.27681
H         92.03774       88.32952      -14.37268
H         91.89625       85.26745      -14.46296
H         90.61961       86.43816      -14.96444
H         90.54377       87.36385      -12.62992
H         91.77963       86.15143      -12.11587
N         94.26452       88.22111      -12.91108
C         93.76606       89.59338      -12.86247
C         92.60531       89.72474      -11.89765
O         92.76558       89.40790      -10.72676
C         94.92121       90.53945      -12.46825
C         94.50614       92.01945      -12.42241
C         95.72461       92.89726      -12.36884
O         95.93228       93.75475      -13.38279
O         96.54465       92.79197      -11.47092
H         95.13964       88.01471      -12.40197
H         93.47783       89.91978      -13.88585
H         95.70594       90.41621      -13.24640
H         95.35968       90.25428      -11.48647
H         93.84236       92.21175      -11.55276
H         93.94848       92.27078      -13.35210
N         91.41591       90.23877      -12.32173
C         90.28275       90.46810      -11.44705
H         89.40759       89.89372      -11.81436
H         90.48767       90.17102      -10.39714
H         90.02949       91.55009      -11.45585
H         91.30798       90.51027      -13.31045
Ca        97.87290       94.70930      -14.02259
O         97.32895       96.25882      -11.46240
H         97.14904       95.69639      -10.66769
H         97.07830       97.17457      -11.18233
O         99.66872       94.02424      -10.98722
H        100.61586       93.75044      -10.89633
H         99.38995       94.25925      -10.06678
O        100.55461       96.22962      -13.36474
H        100.02160       96.47171      -14.16274
H        101.48067       96.48902      -13.59919
O        100.45788       92.78035      -13.84013
H        100.49287       91.83158      -14.12084
H        101.24263       92.89248      -13.24699

Ca 1.0



