%chk=apoCaM-CA-Ng.loop1.water3.frame1435.chk
%nprocshared=20
%mem=10GB
%nosave
#b3lyp/svp scf=(tight,noincore,xqc) Test 
#IOP(5/87=12) Density=Current Pop=(MK,readradii) iop(6/33=2) iop(6/42=6)

apoCaM-CA-Ng.loop1.water3.frame1435 

   0  1 
C         80.86705       92.29242       23.15113
C         80.96896       93.36017       22.10437
O         80.31735       93.23300       21.07747
H         81.51854       92.51488       24.02152
H         79.81652       92.21267       23.49971
H         81.18077       91.32016       22.71507
N         81.77987       94.44185       22.29089
C         81.96001       95.48357       21.28665
C         83.39982       95.49986       20.82046
O         84.00866       96.55518       20.70483
C         81.46183       96.83995       21.82740
C         82.12782       97.24336       23.12045
O         83.33111       97.44082       23.17175
O         81.38816       97.38615       24.23618
H         82.31696       94.51598       23.16820
H         81.36422       95.24885       20.38355
H         80.36961       96.75034       22.01193
H         81.61113       97.63360       21.06335
N         84.00989       94.32299       20.52543
C         85.37266       94.24257       20.03240
C         85.47564       94.89408       18.65558
O         86.34635       95.74144       18.51513
C         85.93359       92.80179       20.13586
C         85.95133       92.37081       21.62691
C         86.62276       91.01866       21.89097
C         86.54067       90.68183       23.39384
N         87.20183       89.41452       23.70024
H         83.48507       93.44792       20.67391
H         86.03190       94.82748       20.71617
H         86.98110       92.80481       19.76119
H         85.34270       92.08559       19.52683
H         84.91075       92.32529       22.01125
H         86.50510       93.13487       22.21824
H         87.68881       91.07007       21.57856
H         86.11138       90.22354       21.30795
H         85.47122       90.61669       23.69680
H         87.01881       91.49087       23.99152
H         86.77542       88.63938       23.14332
H         88.22404       89.48481       23.49142
H         87.08038       89.20524       24.71828
N         84.61431       94.68480       17.60902
C         83.47697       93.76375       17.55975
C         82.14523       94.50976       17.56561
O         82.11730       95.73092       17.50038
C         83.63994       92.79088       16.36931
C         84.10200       93.45002       15.08971
O         83.30567       94.15402       14.25228
O         85.28437       93.35062       14.79784
H         84.76255       95.27545       16.77549
H         83.44881       93.13410       18.46442
H         82.76068       92.13897       16.21775
H         84.47044       92.11758       16.67092
N         80.99505       93.80226       17.77117
C         79.67419       94.38572       17.98852
C         79.07490       95.04982       16.77604
O         79.73026       95.14370       15.75940
H         81.06888       92.77853       17.87323
H         79.69858       95.10371       18.83307
H         78.98540       93.55740       18.26556
N         77.77705       95.47248       16.81504
C         77.03277       96.00626       15.66029
C         75.52395       96.02151       15.94950
O         75.14601       95.92837       17.10902
C         77.47101       97.45175       15.30800
C         78.87966       97.58455       14.81815
O         79.76245       98.32940       15.50915
O         79.22465       97.04417       13.77922
H         77.28076       95.29881       17.70148
H         77.18992       95.30812       14.81964
H         77.33374       98.08549       16.21053
H         76.83171       97.87243       14.51074
N         74.55927       96.11923       14.98276
C         74.74719       96.14424       13.53958
C         75.36991       94.86657       13.04315
O         74.89478       93.79680       13.39855
H         73.57751       96.13634       15.30214
H         75.31231       97.03749       13.21148
H         73.74295       96.21557       13.06727
N         76.42334       94.90135       12.18164
C         77.07743       93.68936       11.70434
C         77.95253       93.13599       12.87206
O         78.83758       94.15033       13.30014
C         77.88284       93.97899       10.40275
C         77.02130       94.61431        9.28952
O         78.47099       92.79784        9.91503
H         76.75975       95.81909       11.85134
H         76.29595       92.94813       11.41993
H         78.69075       94.70422       10.63084
H         77.75099       92.22398        9.54241
H         76.60325       95.59384        9.59922
H         77.64460       94.78991        8.38616
H         76.17886       93.94589        9.01111
N         78.55052       91.81682       12.56971
C         79.29917       91.08471       13.63020
C         80.77175       91.22852       13.33434
O         81.52936       91.76861       14.11665
C         78.87281       91.37939       15.10682
C         77.36331       91.10781       15.36184
C         79.70987       90.54140       16.10697
C         76.91101       89.65883       15.12784
H         77.74971       91.20320       12.28698
H         79.12586       89.99497       13.48708
H         79.06381       92.44968       15.33108
H         76.74201       91.76642       14.72428
H         77.13556       91.37232       16.41759
H         79.38318       90.73883       17.14825
H         79.62444       89.45560       15.89610
H         80.78620       90.78202       16.07602
H         77.45350       88.94935       15.78507
H         75.83098       89.56963       15.36495
H         77.05023       89.35825       14.06978
N         81.24268       90.72768       12.16954
C         82.62299       90.87440       11.72663
C         82.75658       90.86564       10.20332
O         83.88042       91.02597        9.74823
C         83.54314       89.82789       12.40817
C         83.04190       88.39750       12.20991
O         83.63279       90.07737       13.78638
H         80.57703       90.17418       11.62057
H         82.99129       91.88656       12.01415
H         84.56686       89.89243       11.96839
H         84.27791       90.82429       13.89997
H         83.74705       87.68745       12.69133
H         82.04606       88.26912       12.68704
H         82.96379       88.15323       11.13087
N         81.69499       90.72372        9.34354
C         81.84665       90.78204        7.89750
C         82.25387       92.20035        7.53907
O         81.40690       93.08066        7.58673
C         80.51925       90.34766        7.21381
C         80.62153       90.32754        5.68959
O         80.18389       89.05764        7.66307
H         80.74104       90.58860        9.68890
H         82.63575       90.05323        7.60892
H         79.71645       91.06351        7.51723
H         79.21065       88.93540        7.50577
H         80.85480       91.33830        5.29757
H         81.40795       89.61209        5.37048
H         79.64888       90.00208        5.26045
N         83.56548       92.50205        7.29170
C         84.10168       93.85694        7.13187
C         83.90938       94.70674        8.37882
O         82.85985       94.65501        8.99763
C         83.51752       94.59433        5.92195
C         83.82020       93.87057        4.60881
C         83.19874       94.64008        3.43739
C         83.44125       93.96900        2.07863
N         84.85213       93.99565        1.68814
H         84.24527       91.72704        7.26607
H         85.19882       93.77185        6.95813
H         83.98158       95.60622        5.87358
H         82.42339       94.72785        6.04490
H         83.39286       92.84478        4.63760
H         84.92261       93.79889        4.49210
H         83.58898       95.68150        3.40902
H         82.10026       94.68583        3.60471
H         82.85364       94.52514        1.31566
H         83.06969       92.92059        2.10212
H         84.94440       93.58461        0.73149
H         85.19802       94.98269        1.66277
H         85.43536       93.43028        2.34400
N         84.87318       95.58586        8.76809
C         84.70953       96.44988        9.93306
C         84.50034       95.62597       11.19342
O         83.48479       95.84421       11.83690
C         85.87897       97.44419       10.10130
C         85.93436       98.45510        8.94420
C         87.06188       99.42692        9.13376
O         86.80580      100.74302        9.25994
O         88.21633       99.03104        9.16278
H         85.73519       95.65326        8.20640
H         83.79635       97.07432        9.78814
H         86.84696       96.91311       10.18857
H         85.71933       98.01991       11.04094
H         84.97362       99.01538        8.90662
H         86.07434       97.93820        7.97239
N         85.34811       94.65408       11.63949
C         86.56951       94.20517       11.00863
H         87.41454       94.34935       11.71316
H         86.47588       93.12248       10.78098
H         86.80402       94.72531       10.06900
H         85.09263       94.16083       12.50135
Ca        81.09835       94.21993       13.72016
O         82.42899       97.74678       13.85693
H         83.35507       97.99451       13.61012
H         82.07848       98.54730       14.32070
O         80.56191       96.78326       11.04881
H         81.06055       97.62580       10.90262
H         80.58821       96.32458       10.17185
O         80.97708       93.46135       11.02543
H         80.87623       93.44698       10.04456
H         81.63387       94.17854       11.19350

Ca 1.0



