%chk=apoCaM-CA-Ng.loop3.water3.frame768.chk
%nprocshared=20
%mem=10GB
%nosave
#b3lyp/svp scf=(tight,noincore,xqc) Test 
#IOP(5/87=12) Density=Current Pop=(MK,readradii) iop(6/33=2) iop(6/42=6)

apoCaM-CA-Ng.loop3.water3.frame768 

   0  1 
C         89.49039      -15.84766       28.02587
C         89.97689      -16.75503       29.11903
O         90.71499      -17.68539       28.83027
H         88.83683      -15.04257       28.42429
H         90.36492      -15.36834       27.53538
H         88.92239      -16.42983       27.27263
N         89.64081      -16.51313       30.41600
C         90.19635      -17.27874       31.53110
C         89.62178      -18.70715       31.55943
O         88.62545      -18.94775       30.89113
C         89.92592      -16.47160       32.83276
C         90.79252      -16.76501       34.02315
O         90.64243      -16.01982       35.13449
O         91.67573      -17.60044       33.98449
H         89.04552      -15.69282       30.61429
H         91.29050      -17.30486       31.37249
H         88.84961      -16.54666       33.10274
H         90.14503      -15.40191       32.61865
N         90.19256      -19.70269       32.30727
C         89.63523      -21.05592       32.44106
C         89.19763      -21.36132       33.86993
O         88.48518      -22.33819       34.05766
C         90.66225      -22.12874       32.03703
C         91.00362      -22.14129       30.54656
C         92.02930      -23.25269       30.27422
C         92.29381      -23.43686       28.77777
N         93.27950      -24.49567       28.55556
H         91.06056      -19.49641       32.80814
H         88.72195      -21.15565       31.81469
H         90.24339      -23.13198       32.27834
H         91.58548      -21.99126       32.64193
H         91.41532      -21.16005       30.22560
H         90.07035      -22.34654       29.97744
H         91.64555      -24.21761       30.67465
H         92.97976      -23.00630       30.79798
H         92.66592      -22.48583       28.33832
H         91.34104      -23.71352       28.27279
H         94.19452      -24.22903       28.98661
H         92.94575      -25.39593       28.97186
H         93.41451      -24.63034       27.52786
N         89.58405      -20.59250       34.92226
C         89.13003      -20.78850       36.29288
C         88.28644      -19.59715       36.73078
O         87.29876      -19.81717       37.41840
C         90.30047      -21.13461       37.25001
C         91.55802      -20.33730       37.03382
O         91.55087      -18.99966       37.08798
O         92.60003      -20.91443       36.76601
H         90.22760      -19.81320       34.75487
H         88.44409      -21.66241       36.36900
H         90.57543      -22.19988       37.07782
H         89.95649      -21.05308       38.30356
N         88.56006      -18.32406       36.31882
C         87.72027      -17.17449       36.62107
C         88.40031      -16.19521       37.55466
O         87.76284      -15.22214       37.92986
H         89.39231      -18.14493       35.75213
H         86.78316      -17.49602       37.12457
H         87.43087      -16.67584       35.67070
N         89.65342      -16.43085       38.04149
C         90.24729      -15.70319       39.15045
C         91.64096      -15.19600       38.82539
O         92.46545      -15.97430       38.37078
C         90.40087      -16.68843       40.32824
C         89.11766      -17.41374       40.64829
N         89.05350      -18.76333       40.54169
O         88.13058      -16.78321       40.99517
H         90.17207      -17.24792       37.71641
H         89.58994      -14.87053       39.48585
H         90.75576      -16.14047       41.22742
H         91.17174      -17.44691       40.06588
H         89.87549      -19.31084       40.24486
H         88.18018      -19.26758       40.75123
N         92.01836      -13.93810       39.17742
C         93.40952      -13.51080       39.17931
C         94.04127      -13.47224       37.80922
O         93.55980      -12.74083       36.95595
H         91.31870      -13.29801       39.58252
H         93.98462      -14.18780       39.84976
H         93.47105      -12.49104       39.61533
N         95.17638      -14.19182       37.55174
C         95.90573      -14.09731       36.28748
C         95.09130      -14.62120       35.11525
O         94.00567      -15.14708       35.31599
C         97.23819      -14.88617       36.35006
C         98.19164      -14.41806       37.42514
C         98.67700      -13.09830       37.43513
C         98.63706      -15.31704       38.40953
C         99.58984      -12.68812       38.41315
C         99.55224      -14.90598       39.38281
C        100.03307      -13.59319       39.38865
O        100.92214      -13.21639       40.32997
H         95.56728      -14.77833       38.30538
H         96.13282      -13.02448       36.10248
H         97.77892      -14.78730       35.38565
H         97.00339      -15.96407       36.48959
H         98.35767      -12.38793       36.68348
H         98.28684      -16.34165       38.41818
H         99.95774      -11.66964       38.40746
H         99.89355      -15.61219       40.12933
H        101.28813      -12.32111       40.36478
N         95.57700      -14.48237       33.84378
C         94.91613      -14.93479       32.62055
C         94.87894      -16.45955       32.56080
O         94.41302      -17.07920       33.50392
C         93.49913      -14.30371       32.44138
C         92.90360      -14.58936       31.03291
C         93.50021      -12.78928       32.72800
C         93.66248      -13.95711       29.85600
H         96.47431      -13.98875       33.72040
H         95.54237      -14.57462       31.77982
H         92.80938      -14.76223       33.18122
H         91.86123      -14.20384       31.00512
H         92.85834      -15.68389       30.86499
H         93.79333      -12.58715       33.77889
H         94.20828      -12.24862       32.06818
H         92.47894      -12.37396       32.59054
H         93.69167      -12.85171       29.94225
H         94.69733      -14.34337       29.77417
H         93.14115      -14.20511       28.90833
N         95.30873      -17.13042       31.44881
C         95.24697      -18.58971       31.33712
C         96.48571      -19.22270       30.70937
O         96.50338      -20.44318       30.59989
C         93.99434      -18.98512       30.54518
O         94.05692      -18.49211       29.23222
H         95.57145      -16.57827       30.62027
H         95.14993      -19.03537       32.34646
H         93.09858      -18.60452       31.08368
H         93.88382      -20.09039       30.51027
H         93.34348      -17.80940       29.13875
N         97.54783      -18.49388       30.25957
C         98.71285      -19.10900       29.61883
C         99.46479      -20.01462       30.59306
O         99.18654      -19.93005       31.78167
C         99.64308      -17.98810       29.13402
H         97.52736      -17.46834       30.34812
H         98.35340      -19.69362       28.74688
H         99.98101      -17.37195       29.99510
H        100.53866      -18.37087       28.63259
H         99.10390      -17.33256       28.41739
N        100.45174      -20.89268       30.22929
C        100.83668      -21.28185       28.86917
C        102.21691      -21.93853       28.88665
O        102.43665      -22.79303       29.73490
C         99.83449      -22.29121       28.30064
H        100.90717      -21.39674       31.00690
H        100.82993      -20.42311       28.19102
H         99.80007      -23.20884       28.92510
H         98.81641      -21.86028       28.24411
H        100.14098      -22.57664       27.26933
N        103.19961      -21.67684       27.97405
C        103.06372      -20.81837       26.80218
C        102.93699      -19.36146       27.19700
O        102.02645      -18.69662       26.72288
C        104.25904      -21.03828       25.84665
C        103.98914      -20.45762       24.44901
C        105.11096      -20.78690       23.50617
O        106.35188      -20.32065       23.74056
O        104.90234      -21.47792       22.52096
H        104.08051      -22.20693       28.07806
H        102.16238      -21.15033       26.23912
H        104.39228      -22.13527       25.71086
H        105.19572      -20.62712       26.28432
H        103.85898      -19.35663       24.49582
H        103.04938      -20.90646       24.05346
N        103.80056      -18.80694       28.09175
C        103.66869      -17.43877       28.54539
H        102.67429      -17.28842       29.01740
H        104.44709      -17.21463       29.30540
H        103.78291      -16.73860       27.69225
H        104.55434      -19.38381       28.49468
Ca        93.37637      -17.87087       36.39309
O         96.20020      -18.45039       35.58893
H         96.09010      -19.12970       34.87732
H         96.05011      -18.94695       36.43240
O         93.41412      -20.25694       33.57611
H         92.85590      -20.21623       34.38940
H         93.97761      -21.06163       33.69296
O         94.59968      -17.95502       39.06114
H         94.96907      -18.87246       39.03109
H         93.63282      -18.08893       39.22644

Ca 1.0



