%chk=apoCaM-CA-Ng.loop4.water6.frame936.chk
%nprocshared=20
%mem=10GB
%nosave
#b3lyp/svp scf=(tight,noincore,xqc) Test 
#IOP(5/87=12) Density=Current Pop=(MK,readradii) iop(6/33=2) iop(6/42=6)

apoCaM-CA-Ng.loop4.water6.frame936 

   -3  1 
C         67.72642      100.61438       89.33663
C         66.61826      100.96314       90.28770
O         65.49034      101.11429       89.84807
H         68.69252      100.48653       89.86818
H         67.48095       99.66345       88.81795
H         67.84568      101.41885       88.58234
N         66.85608      101.06077       91.62464
C         65.83162      101.35704       92.62159
C         64.64032      100.42511       92.45788
O         63.51028      100.89217       92.42752
C         65.38814      102.83871       92.56417
C         66.52900      103.79592       92.74984
O         66.77319      104.63074       91.89430
O         67.26555      103.76322       93.87613
H         67.80737      100.86298       91.97087
H         66.27929      101.17493       93.62381
H         64.65143      103.03075       93.37419
H         64.88749      103.04020       91.59465
N         64.82866       99.08835       92.27817
C         63.71667       98.16220       92.07786
C         62.94823       98.09170       93.39338
O         63.54500       97.66278       94.37112
C         64.26464       96.77526       91.59931
C         65.00569       96.88288       90.22901
C         63.20020       95.66421       91.53285
C         64.15179       97.39070       89.05344
H         65.79660       98.73314       92.25696
H         63.07202       98.55592       91.27534
H         65.00395       96.43166       92.35681
H         65.40339       95.88051       89.95981
H         65.87847       97.56193       90.31956
H         62.69204       95.54471       92.51210
H         62.44399       95.84118       90.74990
H         63.68842       94.69664       91.28974
H         63.80534       98.43136       89.21756
H         64.76625       97.39812       88.12891
H         63.27449       96.73916       88.86852
N         61.67026       98.55694       93.56313
C         60.80439       99.09914       92.51509
C         59.64391       99.85563       93.14145
O         58.91336       99.28280       93.93867
C         60.28213       97.96202       91.62212
C         59.44477       98.45670       90.48382
O         58.17498       98.02908       90.35254
O         59.92058       99.21913       89.65659
H         61.30567       98.54905       94.52939
H         61.37108       99.82195       91.89564
H         59.69958       97.24108       92.23565
H         61.12538       97.42950       91.17445
N         59.41955      101.15939       92.80946
C         58.38035      101.97636       93.41126
C         57.31058      102.40214       92.42908
O         56.46300      103.18548       92.83361
H         60.02015      101.61036       92.10173
H         58.86862      102.88272       93.83081
H         57.87410      101.45171       94.24912
N         57.23889      101.91295       91.15232
C         56.18311      102.33475       90.22495
C         56.00853      101.48477       88.95687
O         55.05945      101.76875       88.23857
C         56.37647      103.82339       89.83307
C         57.68580      104.07428       89.12999
O         57.69701      104.53801       88.00117
O         58.85310      103.81972       89.75286
H         57.93172      101.21484       90.87296
H         55.21210      102.22679       90.75839
H         56.34688      104.46907       90.73291
H         55.53455      104.14447       89.18037
N         56.81511      100.44002       88.59678
C         56.58809       99.65819       87.38811
C         56.81561      100.44085       86.10828
O         56.56383       99.89225       85.04566
H         57.60163      100.15249       89.17772
H         55.55054       99.26074       87.41098
H         57.28457       98.79085       87.36955
N         57.31882      101.70901       86.12475
C         57.59135      102.52096       84.94726
C         58.64839      101.85962       84.08183
O         58.47412      101.73014       82.87798
C         56.29600      102.87545       84.18203
C         55.26942      103.56666       85.09312
C         54.02282      103.92899       84.32989
N         52.82411      103.39778       84.66854
O         54.09408      104.71564       83.39753
H         57.56764      102.13968       87.02277
H         58.03756      103.47712       85.30363
H         55.83871      101.95673       83.75630
H         56.55464      103.55667       83.34164
H         55.70631      104.49012       85.53072
H         55.00536      102.88227       85.92454
H         52.73985      102.73137       85.45021
H         51.97372      103.65107       84.14408
N         59.78936      101.40764       84.67134
C         60.90889      100.80719       83.95308
C         62.21330      101.54235       84.25807
O         63.24818      101.10456       83.77186
C         61.05429       99.30309       84.35072
C         61.39338       99.09493       85.84141
C         59.79081       98.50871       83.99556
H         59.85808      101.47839       85.69765
H         60.73925      100.85151       82.85469
H         61.88980       98.87133       83.75539
H         61.53589       98.01351       86.05203
H         62.33947       99.60985       86.10785
H         60.58325       99.46846       86.50133
H         59.94097       97.43053       84.21871
H         58.92289       98.86621       84.58518
H         59.56108       98.61073       82.91419
N         62.25737      102.59853       85.12563
C         63.49249      103.10215       85.70445
C         63.64800      104.60948       85.53801
O         62.72578      105.29143       85.11275
C         63.41815      102.71321       87.20491
C         64.56626      103.18028       88.04720
N         64.35571      104.02455       89.08469
O         65.69642      102.79540       87.79155
H         61.38848      102.98826       85.51603
H         64.37689      102.61399       85.23838
H         63.35765      101.60590       87.28836
H         62.47616      103.12865       87.62710
H         63.40717      104.35665       89.31508
H         65.14221      104.35731       89.65835
N         64.82461      105.18363       85.91563
C         65.09502      106.60618       86.01388
C         66.33725      106.93309       85.21556
O         67.32475      106.22301       85.36059
C         65.38960      106.92054       87.49472
C         65.61630      108.38949       87.73385
C         64.54368      109.28723       87.62725
C         66.89126      108.87293       88.07313
C         64.73901      110.64889       87.86543
C         67.08773      110.23836       88.29799
C         66.01308      111.12978       88.20078
O         66.21388      112.44198       88.43423
H         65.59213      104.56626       86.20914
H         64.22286      107.21271       85.68504
H         66.28685      106.34372       87.80017
H         64.55098      106.58811       88.14260
H         63.55344      108.92844       87.37453
H         67.73402      108.19707       88.15419
H         63.89861      111.32716       87.79134
H         68.07521      110.60258       88.55204
H         65.49366      113.08705       88.38839
N         66.39983      108.04104       84.42816
C         67.61457      108.41499       83.71873
C         68.15642      109.70845       84.30639
O         67.49856      110.72506       84.12965
C         67.29227      108.56632       82.21829
C         68.52900      108.87632       81.36528
C         68.13609      109.07411       79.92910
O         67.29903      110.07446       79.59066
O         68.57809      108.33844       79.06154
H         65.57912      108.66429       84.37092
H         68.36053      107.61589       83.81575
H         66.53934      109.37705       82.09322
H         66.83839      107.61965       81.85014
H         69.24990      108.03422       81.45161
H         69.02493      109.80489       81.71851
N         69.31400      109.80926       85.03319
C         70.18686      108.71902       85.48477
C         70.80626      107.94974       84.33345
O         71.49144      108.53650       83.50724
C         71.31058      109.31565       86.37658
C         72.38557      108.34001       86.89648
C         71.87933      107.27293       87.82543
O         71.04583      106.31517       87.38331
O         72.28617      107.22593       88.97566
H         69.55850      110.76206       85.34964
H         69.58457      108.03109       86.11613
H         70.84667      109.83079       87.24690
H         71.84982      110.08445       85.77912
H         73.13759      108.94997       87.44500
H         72.91185      107.85511       86.04748
N         70.62608      106.60131       84.25179
C         71.22230      105.79036       83.21631
H         72.32882      105.86656       83.26823
H         70.93546      104.72628       83.36414
H         70.86518      106.12098       82.21956
H         70.05033      106.12396       84.95978
Ca        70.58674      104.56993       88.73977
O         69.79867      103.26151       91.53298
H         69.44873      104.17955       91.65425
H         70.41463      103.13079       92.29655
O         72.87398      103.95701       90.70104
H         72.94759      104.35157       91.60604
H         73.67032      103.37490       90.61650
O         69.46176      107.01829       90.59060
H         69.62689      107.89233       90.15566
H         68.47540      106.93718       90.61727
O         73.10935      103.60937       87.11173
H         73.25109      103.07045       87.93026
H         73.62906      104.43777       87.26711
O         67.74578      104.70990       89.04367
H         67.79964      104.35561       88.12188
H         67.88507      103.91729       89.61804
O         69.43870      103.33465       85.94276
H         68.66218      102.75679       86.15067
H         69.11250      104.25355       86.11031

Ca 1.0



