%chk=apoCaM-CA-Ng.loop1.water6.frame620.chk
%nprocshared=20
%mem=10GB
%nosave
#b3lyp/svp scf=(tight,noincore,xqc) Test 
#IOP(5/87=12) Density=Current Pop=(MK,readradii) iop(6/33=2) iop(6/42=6)

apoCaM-CA-Ng.loop1.water6.frame620 

   0  1 
C         78.16014       11.59058       99.51850
C         77.00311       12.43939       99.94944
O         76.70856       13.42897       99.29326
H         78.93822       11.61889      100.31064
H         77.83194       10.54189       99.36516
H         78.60216       11.97561       98.57451
N         76.29350       12.10748      101.06407
C         75.22613       12.95110      101.59563
C         75.82082       14.20878      102.23214
O         77.03212       14.35528      102.20144
C         74.30007       12.13911      102.52696
C         74.97748       11.54727      103.72412
O         75.53620       12.36227      104.62456
O         74.96073       10.34275      103.91693
H         76.54269       11.23785      101.55987
H         74.56869       13.26908      100.75538
H         73.84322       11.31894      101.93068
H         73.47130       12.78753      102.88196
N         75.02161       15.18257      102.76581
C         75.49928       16.52939      103.12482
C         76.06677       16.65760      104.54985
O         75.64723       17.52574      105.30009
C         74.40399       17.56715      102.75227
C         73.11408       17.49571      103.60258
C         71.90286       18.12995      102.89174
C         72.04660       19.60758      102.49469
N         72.18435       20.48357      103.65612
H         74.00926       15.02391      102.68024
H         76.34082       16.77882      102.44397
H         74.14679       17.35978      101.68924
H         74.80865       18.60231      102.79715
H         73.28342       17.95332      104.59880
H         72.82222       16.44262      103.78066
H         71.00793       18.01339      103.54100
H         71.71519       17.54943      101.96140
H         71.12838       19.89750      101.93598
H         72.90971       19.74448      101.80790
H         73.07147       20.27691      104.16707
H         72.21044       21.47565      103.32647
H         71.36434       20.36344      104.29422
N         77.09799       15.85908      104.94586
C         77.85320       15.95980      106.19956
C         78.95837       14.89197      106.15378
O         78.62125       13.71999      106.06675
C         76.98644       15.80282      107.47883
C         76.22246       14.52199      107.47928
O         75.27292       14.39940      106.72169
O         76.76356       13.42124      108.03394
H         77.42018       15.15256      104.28119
H         78.29711       16.97085      106.26328
H         76.26988       16.64280      107.59174
H         77.66196       15.83284      108.36154
N         80.29398       15.16748      106.15283
C         80.89388       16.48473      106.23861
C         80.56731       17.37387      105.06475
O         79.80587       16.99164      104.18610
H         80.94568       14.36784      106.10125
H         81.99878       16.36174      106.26139
H         80.58067       16.97742      107.18294
N         81.15576       18.59751      104.98760
C         80.87748       19.54923      103.92097
C         81.98656       19.54137      102.89000
O         83.00752       18.89665      103.08860
C         80.57524       20.94454      104.50960
C         81.66482       21.44841      105.42093
O         82.79659       21.62555      105.00039
O         81.39205       21.69252      106.71804
H         81.86174       18.84204      105.69870
H         79.97474       19.22311      103.35725
H         79.63696       20.87462      105.10216
H         80.40651       21.67994      103.69459
N         81.76567       20.13806      101.68614
C         82.64265       19.98943      100.53759
C         82.00463       19.09853       99.47876
O         82.58753       18.95117       98.41570
H         80.87033       20.62906      101.53369
H         83.61493       19.53191      100.81839
H         82.84776       20.99855      100.12075
N         80.81529       18.46092       99.69980
C         80.15483       17.59925       98.72529
C         80.97934       16.37186       98.35911
O         81.50069       15.68611       99.22725
C         78.74536       17.17085       99.19758
C         78.72878       16.35106      100.48997
O         77.95408       18.31890       99.36862
H         80.33279       18.60801      100.59377
H         79.97572       18.19679       97.80320
H         78.31052       16.54295       98.38190
H         77.00822       18.03842       99.25327
H         79.11466       16.92618      101.35616
H         77.67705       16.08816      100.69101
H         79.30418       15.40927      100.39063
N         81.04070       16.00095       97.05325
C         81.73556       14.82411       96.53546
C         83.23201       14.99030       96.72835
O         83.85688       14.08258       97.25753
C         81.31179       14.61581       95.04684
C         79.80471       14.21218       95.02036
C         82.15998       13.54599       94.33243
C         79.14974       14.33725       93.64774
H         80.52673       16.58940       96.37910
H         81.41451       13.90634       97.08205
H         81.45990       15.57941       94.51019
H         79.20971       14.86775       95.68983
H         79.69055       13.17266       95.40379
H         83.22914       13.84341       94.31527
H         82.06882       12.56287       94.84119
H         81.84543       13.43189       93.27512
H         78.08234       14.03708       93.72806
H         79.18736       15.39689       93.31617
H         79.63500       13.69202       92.89120
N         83.85907       16.15071       96.38047
C         85.28872       16.38144       96.59082
C         85.93518       16.85719       95.29890
O         85.24126       17.08877       94.31942
C         85.47623       17.40138       97.74653
C         84.94176       16.82988       99.06493
O         86.83280       17.70943       97.93075
H         83.29001       16.92579       96.00757
H         85.79835       15.43514       96.87703
H         84.91927       18.32808       97.47587
H         86.87228       18.60309       98.36200
H         83.86551       16.59256       98.98893
H         85.49401       15.90198       99.33050
H         85.07616       17.56751       99.88274
N         87.29150       16.99176       95.23128
C         88.00438       17.41793       94.03867
C         88.85696       16.25447       93.57046
O         88.63227       15.77669       92.46555
C         88.79670       18.72072       94.33356
C         89.50228       19.25954       93.08490
O         89.73399       18.51882       95.35948
H         87.85782       16.74287       96.05288
H         87.28449       17.66202       93.22523
H         88.05157       19.48153       94.66685
H         89.98133       19.41378       95.71115
H         90.02052       20.21174       93.32953
H         90.25466       18.53362       92.71175
H         88.76050       19.46448       92.28427
N         89.82975       15.72378       94.36801
C         90.62987       14.56248       94.00143
C         90.52388       13.49758       95.09592
O         90.01024       13.79214       96.16903
C         92.08207       15.05520       93.78877
C         93.02171       14.02445       93.15406
C         94.42301       14.60438       92.92678
C         95.37657       13.59979       92.25476
N         94.98289       13.29614       90.87629
H         90.02460       16.15883       95.28138
H         90.25113       14.13475       93.04717
H         92.49813       15.41723       94.75516
H         92.03935       15.91943       93.08838
H         92.57155       13.70583       92.19129
H         93.14709       13.15889       93.82158
H         94.84657       14.87474       93.91936
H         94.36971       15.52627       92.30850
H         95.42852       12.66105       92.85090
H         96.39321       14.04998       92.23860
H         95.70602       12.67669       90.44496
H         94.06846       12.79337       90.84602
H         94.92310       14.17880       90.31794
N         91.00014       12.23548       94.90289
C         91.03787       11.22536       95.95878
C         89.64724       10.89271       96.49479
O         89.45475       11.08189       97.68759
C         91.79600        9.95011       95.50931
C         93.28563       10.23589       95.24380
C         93.99528        9.01758       94.73183
O         95.02108        8.48881       95.42508
O         93.66383        8.51755       93.66831
H         91.37204       11.98942       93.97484
H         91.62639       11.64016       96.81039
H         91.33559        9.51426       94.60250
H         91.74094        9.18754       96.31774
H         93.76293       10.57795       96.18886
H         93.40900       11.03021       94.48532
N         88.61581       10.39192       95.75202
C         88.62307       10.14051       94.32690
H         87.79904       10.71539       93.85630
H         89.55528       10.44464       93.82781
H         88.45179        9.05848       94.14628
H         87.73373       10.17597       96.24297
Ca        76.28768       11.74953      106.64629
O         74.85208        9.30971      107.25785
H         75.04897        9.34609      108.22751
H         74.16143       10.00601      107.11938
O         80.00551       10.38963      106.17422
H         80.79311       10.76544      105.70670
H         80.31522        9.51558      106.52134
O         77.99990        9.38463      108.42068
H         78.71460        9.46942      109.10060
H         77.74238        8.42905      108.44882
O         79.33309       12.24888      108.60302
H         80.30096       12.05035      108.54750
H         79.21486       12.67954      109.48655
O         78.65412       11.45807      103.62044
H         78.29745       12.38107      103.61439
H         79.54875       11.53534      103.20357
O         77.51680        8.69440      105.33651
H         77.21823        9.13730      104.50352
H         76.92469        7.90589      105.42455

Ca 1.0



