%chk=apoCaM-CA-Ng.loop4.water2.frame100.chk
%nprocshared=20
%mem=10GB
%nosave
#b3lyp/svp scf=(tight,noincore,xqc) Test 
#IOP(5/87=12) Density=Current Pop=(MK,readradii) iop(6/33=2) iop(6/42=6)

apoCaM-CA-Ng.loop4.water2.frame100 

   -3  1 
C         31.50937       59.96576      103.82109
C         31.57137       61.42881      104.12490
O         32.17247       61.78314      105.12935
H         32.53799       59.57149      103.68594
H         31.03022       59.44186      104.67589
H         30.91770       59.76727      102.90468
N         30.97793       62.34823      103.30374
C         30.97250       63.77750      103.59218
C         32.39012       64.29821      103.75264
O         32.74617       64.76370      104.82156
C         29.93100       64.14063      104.70512
C         29.56300       63.04838      105.69669
O         30.23604       62.85110      106.84398
O         28.57638       62.36177      105.48186
H         30.52080       62.02894      102.43691
H         30.60189       64.33268      102.69915
H         28.98402       64.27660      104.13415
H         30.09403       65.14081      105.16376
N         33.23546       64.24044      102.67186
C         34.60380       64.76256      102.56307
C         34.60635       66.29312      102.46879
O         34.99362       66.79608      101.42180
C         35.57136       64.15306      103.61690
C         37.03834       64.64676      103.45595
C         35.51669       62.61198      103.56137
C         37.73141       64.25853      102.14094
H         32.86835       63.78738      101.81971
H         34.97970       64.41518      101.57295
H         35.24239       64.47040      104.62759
H         37.64336       64.22760      104.28991
H         37.06591       65.75286      103.55319
H         34.49545       62.24574      103.78724
H         35.78946       62.23324      102.55362
H         36.20980       62.16826      104.30531
H         37.79622       63.15677      102.02708
H         37.21031       64.68914      101.26239
H         38.77033       64.65124      102.14501
N         34.13889       67.10036      103.46591
C         33.97074       68.54071      103.29694
C         35.31619       69.27138      103.31951
O         35.62265       69.88981      102.31028
C         32.90332       69.08647      104.27707
C         32.57711       70.53047      104.03312
O         32.13933       70.88991      102.95180
O         32.73523       71.43136      105.02124
H         33.79614       66.68311      104.33250
H         33.50120       68.70039      102.29755
H         33.19549       68.97157      105.32702
H         31.96904       68.49719      104.13980
N         36.21482       69.24747      104.35543
C         36.04869       68.54963      105.62076
C         36.37967       69.42953      106.82940
O         36.88918       70.52241      106.62807
H         37.11784       69.72544      104.20757
H         36.76818       67.70538      105.63015
H         35.05233       68.11895      105.69931
N         36.19779       69.02716      108.13334
C         35.44400       67.85261      108.56803
C         35.92546       66.60136      107.83704
O         35.17989       66.03263      107.05103
C         33.94854       68.18009      108.43097
C         33.10074       66.99893      108.73671
O         33.14787       66.43828      109.81998
O         32.34281       66.52152      107.74211
H         36.55732       69.64028      108.88144
H         35.57050       67.69632      109.66125
H         33.72072       68.50282      107.40414
H         33.68301       69.02205      109.10662
N         37.19356       66.13570      107.97588
C         38.13066       66.59491      108.97908
C         39.24068       67.40291      108.39130
O         39.27580       67.64692      107.19405
H         37.50500       65.38965      107.34541
H         38.53568       65.71037      109.51652
H         37.65126       67.23645      109.73863
N         40.17723       67.90251      109.23656
C         41.26339       68.77500      108.81315
C         42.28212       68.05131      107.93314
O         43.16421       68.71997      107.41245
C         41.91368       69.40854      110.06427
C         40.89450       70.31745      110.79388
C         41.41464       70.83284      112.10645
N         41.65945       69.98018      113.12910
O         41.58053       72.03298      112.26358
H         40.07267       67.68291      110.24004
H         40.83137       69.60359      108.20730
H         42.78735       70.03316      109.77784
H         42.27003       68.59250      110.73090
H         39.94834       69.78155      111.01709
H         40.64459       71.16873      110.12232
H         41.49577       68.96811      113.02216
H         41.99100       70.33390      114.03849
N         42.20946       66.70670      107.69044
C         43.08249       65.99136      106.76022
C         43.92552       64.92763      107.45535
O         44.68915       64.26319      106.76899
C         42.23933       65.35496      105.61194
C         41.56432       66.43740      104.75857
C         41.18591       64.34911      106.11796
H         41.49087       66.15025      108.17005
H         43.80831       66.69130      106.28992
H         42.93351       64.80526      104.93831
H         40.85001       67.03348      105.35756
H         42.32889       67.12346      104.33646
H         41.01227       65.97263      103.91379
H         40.41314       64.84249      106.74276
H         40.66536       63.87809      105.25731
H         41.66515       63.54173      106.71034
N         43.86623       64.72062      108.80234
C         44.67563       63.72728      109.49782
C         43.80924       62.73142      110.24775
O         44.07829       61.54134      110.15574
C         45.62168       64.41340      110.50452
C         46.61298       65.33382      109.83603
N         46.69755       66.63648      110.19349
O         47.36505       64.89266      108.97939
H         43.25115       65.31153      109.37534
H         45.32348       63.15592      108.79471
H         46.20559       63.62862      111.03576
H         45.03003       64.97082      111.26082
H         46.08747       67.02526      110.92700
H         47.38798       67.25730      109.74547
N         42.80363       63.14893      111.07045
C         42.15810       62.28304      112.04923
C         40.67852       62.07070      111.79250
O         39.97361       63.01014      111.45207
C         42.32574       62.93491      113.43749
C         43.77886       63.13203      113.78883
C         44.30548       64.42468      113.95223
C         44.62095       62.02110      113.95287
C         45.65600       64.60034      114.26768
C         45.96840       62.19860      114.27248
C         46.49132       63.48999      114.42968
O         47.79075       63.67434      114.73647
H         42.55058       64.14762      111.09261
H         42.64456       61.28429      112.07876
H         41.85621       62.30693      114.22300
H         41.79864       63.91644      113.43048
H         43.67601       65.29730      113.82658
H         44.23313       61.01712      113.83617
H         46.05325       65.60073      114.38504
H         46.60357       61.33114      114.39710
H         48.39890       62.93158      114.85993
N         40.13026       60.85781      112.11176
C         38.70233       60.55402      112.16293
C         38.01777       60.46293      110.80567
O         36.80950       60.26763      110.80362
C         37.95675       61.48661      113.15296
C         38.55276       61.39675      114.56982
C         37.76461       62.21092      115.55429
O         37.18320       61.61052      116.61092
O         37.65805       63.41851      115.41247
H         40.76103       60.11336      112.44706
H         38.59150       59.52955      112.58633
H         36.89441       61.16187      113.21377
H         37.96717       62.53867      112.80033
H         39.60056       61.75813      114.57017
H         38.54890       60.33561      114.90281
N         38.70593       60.46764      109.62272
C         38.04640       60.22527      108.33602
C         38.44647       58.89499      107.71887
O         37.82113       58.51503      106.73676
C         38.38343       61.33477      107.32653
C         37.91135       62.72248      107.74465
C         36.41265       62.81219      107.84511
O         35.71387       62.57529      106.87292
O         35.83411       63.17269      109.00583
H         39.72977       60.58072      109.63136
H         36.94353       60.17405      108.47034
H         37.92545       61.10077      106.33907
H         39.48726       61.36424      107.18751
H         38.26373       63.42139      106.96053
H         38.37796       63.01043      108.71113
N         39.47228       58.13583      108.19547
C         39.83556       56.88422      107.56687
H         40.72720       56.45149      108.06620
H         38.99266       56.16522      107.64461
H         40.07725       57.05355      106.49479
H         40.03314       58.44843      108.99938
Ca        31.44653       64.50623      107.66635
O         33.09341       61.03789      108.14010
H         33.53039       60.50929      107.42581
H         33.22683       60.50192      108.96194
O         32.74763       63.38940      110.47071
H         32.43729       62.85471      111.24356
H         32.11523       64.14955      110.43226

Ca 1.0



