%chk=apoCaM-CA-Ng.loop3.water4.frame230.chk
%nprocshared=20
%mem=10GB
%nosave
#b3lyp/svp scf=(tight,noincore,xqc) Test 
#IOP(5/87=12) Density=Current Pop=(MK,readradii) iop(6/33=2) iop(6/42=6)

apoCaM-CA-Ng.loop3.water4.frame230 

   0  1 
C         37.26739       54.06268       91.99076
C         37.67990       55.31392       91.27390
O         36.81505       56.07528       90.87089
H         36.15989       53.99260       92.05732
H         37.64932       53.17441       91.44629
H         37.68386       54.06973       93.01999
N         39.00503       55.59245       91.09418
C         39.53694       56.79563       90.44902
C         39.26908       56.87083       88.94547
O         39.67622       57.85518       88.34400
C         39.04839       58.07593       91.16880
C         39.38347       58.05100       92.63411
O         38.40043       58.11831       93.55218
O         40.54596       57.97561       92.99913
H         39.69212       54.92452       91.47655
H         40.64542       56.76970       90.54752
H         37.95336       58.20234       91.04436
H         39.53455       58.96762       90.71774
N         38.63493       55.87589       88.25918
C         38.36682       55.92438       86.82254
C         36.86867       55.93008       86.54772
O         36.48010       55.80355       85.39445
C         39.07490       54.74289       86.12565
C         40.60320       54.89309       86.21438
C         41.33207       53.79054       85.43746
C         42.85037       54.02331       85.46310
N         43.55567       52.98808       84.70869
H         38.31942       55.03174       88.75710
H         38.75661       56.85562       86.35582
H         38.80193       54.74727       85.04716
H         38.74652       53.77557       86.56618
H         40.92806       54.87456       87.27749
H         40.88458       55.87554       85.77388
H         40.98892       53.79840       84.37944
H         41.09404       52.80066       85.88411
H         43.21238       54.02359       86.51516
H         43.07867       55.01659       85.01452
H         43.37939       52.04969       85.13499
H         43.23870       52.98968       83.71181
H         44.58229       53.18563       84.73551
N         35.97236       56.16522       87.54814
C         34.53435       56.24750       87.36307
C         34.11888       57.68358       87.63723
O         34.39381       58.18176       88.72135
C         33.87440       55.23823       88.32149
C         32.38802       55.12755       88.17568
O         31.72055       54.25571       88.95495
O         31.78082       55.79446       87.35293
H         36.31475       56.34809       88.49836
H         34.25677       55.97406       86.32096
H         34.11430       55.50893       89.37333
H         34.29864       54.23078       88.11861
N         33.51783       58.43644       86.66806
C         33.30628       59.87019       86.81254
C         32.39330       60.27449       87.94850
O         32.42805       61.44268       88.30868
H         33.29074       58.00486       85.75963
H         32.91834       60.30880       85.86824
H         34.30355       60.32468       87.00217
N         31.55009       59.39404       88.55821
C         30.76399       59.73952       89.73798
C         31.13757       58.79554       90.86867
O         31.56782       59.26786       91.91163
C         29.25335       59.84878       89.41064
C         28.55335       58.61944       88.89681
N         28.03395       58.58973       87.64631
O         28.39823       57.66258       89.63450
H         31.47221       58.43809       88.18337
H         31.02087       60.76514       90.08662
H         29.15470       60.65306       88.64947
H         28.70806       60.19139       90.31688
H         28.12613       59.39595       87.01143
H         27.52728       57.75844       87.31084
N         31.05460       57.44554       90.71095
C         31.45650       56.47735       91.71565
C         30.27746       55.65154       92.15454
O         29.14986       55.96981       91.80184
H         30.71513       57.06188       89.81964
H         31.90451       56.95338       92.61395
H         32.22358       55.81554       91.26038
N         30.46737       54.55616       92.94127
C         29.35504       53.73812       93.42315
C         28.54444       53.16022       92.27667
O         28.96274       53.24507       91.12929
C         29.87130       52.60403       94.33483
C         30.57035       53.16172       95.55088
C         29.84500       53.89660       96.50345
C         31.94824       52.96241       95.74158
C         30.48682       54.42872       97.62421
C         32.58998       53.50159       96.86107
C         31.86003       54.23780       97.80611
O         32.46529       54.76617       98.88866
H         31.43334       54.31305       93.21092
H         28.67560       54.40331       94.00017
H         30.56536       51.97018       93.73821
H         29.03705       51.95527       94.67888
H         28.78124       54.05607       96.37881
H         32.52901       52.40194       95.01939
H         29.91520       54.99302       98.35009
H         33.65401       53.34915       96.99118
H         33.41416       54.66407       99.04893
N         27.31972       52.61576       92.52836
C         26.42467       52.15080       91.47321
C         25.17812       53.02643       91.35277
O         24.41915       52.77450       90.43456
C         26.03503       50.65640       91.67670
C         25.20800       50.44091       92.97419
C         27.29411       49.77322       91.64003
C         24.65062       49.02386       93.11368
H         26.98951       52.58682       93.50436
H         26.93566       52.22620       90.49472
H         25.39767       50.36220       90.81212
H         24.33112       51.12331       92.96405
H         25.81759       50.67412       93.87204
H         27.96602       50.00471       92.49353
H         27.03178       48.69709       91.67136
H         27.84746       49.94225       90.69321
H         24.02698       48.96434       94.03066
H         24.01453       48.77353       92.23804
H         25.46172       48.27509       93.20927
N         24.91703       54.05816       92.21965
C         23.73857       54.93722       92.27272
C         22.62456       54.66765       91.26928
O         22.27785       55.58348       90.53662
C         23.12954       54.89945       93.68397
O         24.07935       55.31866       94.62701
H         25.62090       54.26712       92.93938
H         24.09281       55.98027       92.10655
H         22.78835       53.87083       93.93158
H         22.25606       55.59411       93.70533
H         23.57393       55.58668       95.43793
N         21.99319       53.45542       91.20683
C         20.85902       53.15826       90.33655
C         21.07980       53.66542       88.91634
O         20.27541       54.45320       88.43387
C         19.58127       53.73401       90.96432
H         22.33272       52.69041       91.80966
H         20.72223       52.05432       90.30389
H         19.64085       54.84017       91.04416
H         18.69523       53.46109       90.35160
H         19.43992       53.31225       91.98253
N         22.16490       53.27139       88.19020
C         22.44221       53.80283       86.85410
C         23.63569       53.13818       86.18728
O         24.37889       52.41645       86.83732
C         22.73713       55.31523       86.93534
H         22.79200       52.57052       88.60744
H         21.55168       53.60751       86.21752
H         23.63152       55.48971       87.57472
H         22.93536       55.74017       85.92995
H         21.89413       55.88696       87.36854
N         23.87124       53.36222       84.85658
C         25.03601       52.88971       84.10441
C         25.18410       51.36953       84.04484
O         26.14785       50.92089       83.43702
C         26.32283       53.49506       84.69522
C         26.32388       55.03115       84.72990
C         27.48201       55.47517       85.56437
O         28.38360       56.15366       85.09907
O         27.51234       55.07880       86.85022
H         23.19976       53.95099       84.33970
H         24.94369       53.25194       83.05591
H         27.21422       53.16442       84.11645
H         26.43490       53.09965       85.72074
H         25.40710       55.41948       85.22040
H         26.37519       55.43742       83.69596
N         24.31444       50.50568       84.64208
C         24.54759       49.07768       84.64025
H         25.51671       48.85690       85.13975
H         23.74094       48.55977       85.20045
H         24.57241       48.69422       83.59919
H         23.47491       50.84358       85.12780
Ca        29.19293       55.35935       88.29672
O         30.19221       53.30669       85.98825
H         30.82802       53.72437       85.35449
H         30.18231       52.34947       85.73593
O         30.00389       51.49164       88.73424
H         30.50631       51.05010       88.00469
H         29.25801       50.87099       88.92902
O         27.27548       52.49121       88.02966
H         26.86811       51.61875       87.80085
H         26.51015       53.06040       88.29563
O         26.48864       55.36089       89.79340
H         26.03703       56.01903       89.20813
H         26.62858       55.84019       90.64806

Ca 1.0



