%chk=apoCaM-CA-Ng.loop3.water3.frame730.chk
%nprocshared=20
%mem=10GB
%nosave
#b3lyp/svp scf=(tight,noincore,xqc) Test 
#IOP(5/87=12) Density=Current Pop=(MK,readradii) iop(6/33=2) iop(6/42=6)

apoCaM-CA-Ng.loop3.water3.frame730 

   0  1 
C         86.23190       89.70853      -26.24493
C         86.71859       88.56674      -27.08330
O         86.95380       88.73807      -28.27112
H         85.24582       89.45693      -25.80333
H         86.95990       89.88612      -25.42306
H         86.14427       90.63620      -26.84693
N         86.94246       87.36485      -26.49450
C         87.53404       86.23593      -27.19254
C         86.56321       85.65738      -28.23512
O         85.46807       85.24488      -27.88048
C         88.01404       85.21416      -26.13699
C         88.84056       84.11306      -26.71061
O         89.30844       83.25305      -25.98226
O         88.95061       83.99381      -28.03698
H         86.76244       87.28586      -25.48039
H         88.46091       86.59833      -27.69269
H         87.14405       84.78132      -25.59680
H         88.65717       85.74692      -25.40459
N         86.92188       85.62022      -29.55366
C         86.07303       85.14590      -30.65595
C         85.71507       83.67665      -30.50846
O         84.53467       83.35576      -30.51918
C         86.79067       85.34805      -32.01447
C         87.01891       86.83655      -32.33487
C         87.90751       87.01664      -33.57222
C         88.13782       88.50680      -33.87126
N         89.08890       88.68293      -34.96757
H         87.86115       85.97121      -29.78622
H         85.13200       85.74094      -30.68595
H         86.18238       84.91200      -32.83926
H         87.76071       84.80947      -31.98923
H         87.52657       87.33524      -31.48718
H         86.03546       87.33266      -32.48675
H         87.44368       86.52890      -34.45705
H         88.88875       86.53166      -33.37123
H         88.53866       89.01923      -32.97315
H         87.17043       88.99035      -34.12945
H         89.23233       89.70537      -35.13383
H         90.00961       88.25474      -34.71372
H         88.72096       88.24131      -35.84045
N         86.68693       82.73076      -30.36482
C         86.41377       81.30154      -30.22839
C         86.48633       80.84304      -28.77124
O         86.26382       79.66782      -28.51483
C         87.24673       80.48681      -31.26039
C         88.74542       80.70684      -31.29491
O         89.52055       80.38704      -30.24867
O         89.26765       81.16741      -32.29751
H         87.66406       83.04652      -30.29689
H         85.35306       81.08816      -30.48940
H         86.86092       80.77154      -32.26374
H         87.04660       79.40240      -31.12550
N         86.64224       81.74193      -27.75275
C         86.48916       81.43143      -26.34018
C         87.55332       80.55184      -25.71624
O         87.46000       80.35605      -24.51465
H         86.75787       82.73741      -27.97557
H         85.48914       80.97398      -26.17149
H         86.50535       82.38985      -25.77630
N         88.56458       79.96854      -26.42972
C         89.55241       79.08737      -25.80707
C         90.98198       79.44644      -26.20720
O         91.18774       80.32853      -27.02427
C         89.23441       77.61075      -26.15962
C         89.74192       77.13473      -27.50900
N         89.29859       77.65007      -28.67798
O         90.58473       76.24999      -27.53460
H         88.60031       80.09703      -27.44009
H         89.46666       79.16791      -24.70232
H         88.14256       77.42432      -26.05696
H         89.73326       76.97915      -25.39244
H         88.57689       78.37634      -28.70967
H         89.68202       77.30597      -29.57120
N         92.02004       78.71624      -25.70560
C         93.38722       78.80589      -26.19373
C         94.04709       80.14469      -25.96769
O         94.16352       80.57421      -24.82935
H         91.81884       77.98739      -25.00704
H         93.39226       78.54600      -27.27476
H         93.99958       78.04096      -25.67014
N         94.54415       80.84041      -27.03009
C         95.27502       82.09729      -26.91834
C         94.33035       83.27524      -27.08701
O         93.13841       83.07033      -27.26677
C         96.41885       82.14673      -27.97563
C         97.59407       81.25467      -27.63898
C         98.83097       81.84409      -27.30914
C         97.49323       79.85340      -27.65539
C         99.93568       81.05350      -26.99154
C         98.60587       79.06232      -27.34194
C         99.82734       79.65803      -27.00606
O        100.88784       78.88328      -26.70070
H         94.39319       80.46310      -27.97752
H         95.71954       82.21326      -25.90514
H         96.81784       83.17623      -28.03274
H         96.03303       81.92524      -28.99514
H         98.94397       82.92150      -27.28926
H         96.56373       79.36831      -27.91770
H        100.87446       81.52893      -26.73451
H         98.51921       77.98360      -27.36035
H        101.74641       79.26028      -26.45890
N         94.83524       84.54766      -27.03112
C         94.12738       85.81650      -27.20705
C         93.33552       85.89409      -28.50700
O         92.85257       84.88168      -28.98671
C         93.43501       86.32407      -25.90317
C         92.18114       85.51262      -25.50275
C         93.12239       87.83134      -26.01013
C         91.62245       85.90730      -24.13112
H         95.84860       84.64691      -26.87309
H         94.95633       86.54798      -27.35011
H         94.19132       86.21450      -25.09297
H         92.44618       84.44322      -25.41987
H         91.38988       85.63045      -26.27434
H         92.79197       88.24813      -25.03896
H         94.03931       88.39506      -26.28783
H         92.33294       88.02400      -26.76530
H         92.40108       85.77113      -23.34945
H         91.26665       86.95651      -24.11350
H         90.75709       85.25926      -23.88115
N         93.20672       87.08044      -29.16641
C         92.51219       87.19372      -30.44386
C         93.41616       87.71648      -31.55804
O         93.00913       87.64070      -32.71067
C         91.28282       88.07981      -30.24327
O         90.50411       88.10601      -31.40349
H         93.60379       87.93035      -28.74289
H         92.16222       86.19225      -30.77180
H         91.59642       89.11261      -29.97470
H         90.69025       87.64584      -29.40224
H         89.59605       88.36559      -31.10360
N         94.63619       88.27918      -31.30892
C         95.50923       88.77495      -32.36919
C         96.15930       87.62442      -33.12420
O         96.18270       86.52287      -32.59190
C         96.61886       89.62770      -31.74556
H         94.94561       88.40819      -30.33687
H         94.90530       89.41384      -33.04918
H         96.17539       90.50958      -31.23481
H         97.19509       89.03589      -31.00260
H         97.33038       89.97106      -32.51035
N         96.74845       87.76601      -34.35131
C         96.60092       88.92645      -35.22925
C         97.75086       88.99558      -36.23096
O         98.03367       87.97598      -36.84599
C         95.29739       88.76432      -36.01734
H         97.14018       86.90618      -34.76820
H         96.51090       89.86383      -34.65566
H         95.31576       87.82959      -36.61919
H         94.43048       88.71717      -35.32609
H         95.15377       89.62872      -36.70050
N         98.42970       90.14090      -36.54368
C         98.16923       91.46958      -35.99834
C         98.57701       91.54547      -34.54541
O         97.76431       91.95700      -33.73035
C         98.91056       92.53811      -36.83483
C         98.57890       93.96945      -36.37731
C         99.18238       94.98896      -37.29987
O         98.85360       95.02413      -38.47546
O        100.06999       95.88598      -36.83070
H         99.14615       90.06399      -37.28438
H         97.08513       91.69933      -36.10995
H         98.57513       92.42328      -37.88998
H        100.01080       92.37737      -36.80063
H         98.96304       94.12984      -35.34678
H         97.47746       94.11936      -36.37039
N         99.82661       91.16749      -34.15468
C        100.27020       91.17866      -32.77518
H        101.15966       91.83436      -32.67720
H         99.48479       91.54079      -32.07891
H        100.54895       90.14641      -32.47448
H        100.49465       90.83063      -34.86424
Ca        89.47888       81.98476      -28.74424
O         92.42505       79.99620      -29.73648
H         93.31952       79.74186      -30.07520
H         91.86420       79.19656      -29.89616
O         92.73144       82.71068      -31.07833
H         92.51315       82.42459      -32.00062
H         93.47793       83.35191      -31.18708
O         90.15275       84.31358      -31.00834
H         89.92331       85.23547      -30.73138
H         90.40001       84.39820      -31.96328

Ca 1.0



