%chk=apoCaM-CA-Ng.loop3.water5.frame262.chk
%nprocshared=20
%mem=10GB
%nosave
#b3lyp/svp scf=(tight,noincore,xqc) Test 
#IOP(5/87=12) Density=Current Pop=(MK,readradii) iop(6/33=2) iop(6/42=6)

apoCaM-CA-Ng.loop3.water5.frame262 

   0  1 
C         57.01476       34.73526      111.02872
C         58.41562       34.42740      111.46913
O         59.21448       35.33886      111.62549
H         56.29725       34.36850      111.79291
H         56.86745       35.82725      110.89526
H         56.80755       34.22368      110.06456
N         58.77559       33.13304      111.68496
C         60.09540       32.68083      112.11492
C         61.16076       33.00843      111.07769
O         62.22346       33.50511      111.42712
C         60.44945       33.23188      113.51602
C         59.37075       32.93750      114.52001
O         59.03114       31.66510      114.79887
O         58.79458       33.85383      115.08526
H         58.06125       32.40298      111.53479
H         60.04920       31.57028      112.18066
H         60.59841       34.33206      113.45925
H         61.40154       32.77968      113.86774
N         60.91659       32.77288      109.75861
C         61.87652       33.05062      108.69331
C         61.55798       34.36840      107.99884
O         62.29005       34.75557      107.09840
C         61.86353       31.87116      107.69167
C         62.10701       30.50733      108.36647
C         63.53965       30.35408      108.90159
C         63.74376       29.04383      109.67987
N         63.04344       29.05671      110.96839
H         59.97970       32.43571      109.48533
H         62.89591       33.17731      109.11400
H         62.60479       32.03178      106.87878
H         60.85304       31.83373      107.22620
H         61.92872       29.70024      107.62270
H         61.35784       30.37760      109.17172
H         63.82189       31.19214      109.57001
H         64.22457       30.36435      108.02558
H         64.83181       28.93010      109.87944
H         63.41497       28.17404      109.06884
H         62.00897       29.11170      110.84277
H         63.26254       28.17470      111.48446
H         63.37073       29.86725      111.54401
N         60.49274       35.12473      108.38682
C         60.15080       36.41767      107.82064
C         60.99146       37.48320      108.51045
O         60.95397       37.56730      109.73044
C         58.62911       36.59997      107.98869
C         58.08633       37.80838      107.30774
O         58.37244       39.03122      107.77594
O         57.33843       37.68374      106.35205
H         59.88340       34.78269      109.13915
H         60.34324       36.40450      106.72338
H         58.34251       36.62556      109.06072
H         58.14686       35.70886      107.52595
N         61.82565       38.29018      107.79267
C         62.80341       39.18450      108.40315
C         62.25731       40.28884      109.29093
O         63.07288       40.95021      109.91851
H         61.84197       38.19620      106.76792
H         63.42107       39.65773      107.60761
H         63.48066       38.56019      109.02406
N         60.92780       40.56987      109.40343
C         60.42432       41.63525      110.27137
C         59.04187       41.34421      110.85697
O         58.50891       42.22466      111.51976
C         60.45775       42.98913      109.52539
C         59.46253       43.09830      108.39835
N         58.53774       44.08931      108.39327
O         59.50356       42.30203      107.47441
H         60.27873       40.08673      108.77656
H         61.11114       41.75311      111.13920
H         61.47865       43.15471      109.11951
H         60.26470       43.80175      110.25978
H         58.49454       44.77973      109.15712
H         57.86811       44.18287      107.61674
N         58.39219       40.15271      110.67787
C         57.03758       39.92022      111.15726
C         56.03563       40.78447      110.42012
O         56.41649       41.51673      109.51928
H         58.85477       39.36925      110.20236
H         56.99469       40.11789      112.25009
H         56.75821       38.85789      110.98371
N         54.72042       40.76935      110.77143
C         53.73201       41.62021      110.10860
C         53.42104       41.14987      108.69520
O         53.86186       40.08598      108.28872
C         52.43576       41.69005      110.94517
C         52.68371       42.37048      112.27101
C         53.07572       43.72132      112.30361
C         52.52187       41.67599      113.48051
C         53.30579       44.36344      113.52175
C         52.75504       42.32123      114.70030
C         53.14667       43.66475      114.72582
O         53.36469       44.27338      115.90896
H         54.43524       40.18580      111.57353
H         54.15283       42.64658      110.02921
H         52.04456       40.65770      111.08424
H         51.65222       42.27555      110.41896
H         53.19945       44.28167      111.38522
H         52.22030       40.63618      113.48106
H         53.60613       45.40390      113.52703
H         52.63045       41.77635      115.62734
H         53.63268       45.20185      115.96731
N         52.66501       41.94601      107.88611
C         52.29161       41.64098      106.50593
C         53.01009       42.60304      105.56288
O         53.54030       42.13938      104.56478
C         50.74387       41.67591      106.35677
C         50.04272       40.67904      107.32404
C         50.29596       41.41524      104.90494
C         50.36733       39.19680      107.08689
H         52.33935       42.84207      108.27652
H         52.62851       40.62123      106.22165
H         50.39403       42.69633      106.63026
H         48.94221       40.80603      107.23101
H         50.31320       40.92989      108.37188
H         50.64930       40.42940      104.53954
H         49.18764       41.45170      104.83443
H         50.69425       42.18842      104.22140
H         50.05228       38.87142      106.07452
H         51.44804       38.98978      107.21898
H         49.81430       38.57777      107.82387
N         53.17683       43.92620      105.86588
C         54.07409       44.80329      105.11102
C         53.53595       45.23777      103.75907
O         54.24835       45.96332      103.07839
C         54.46749       46.02214      105.95859
O         55.08732       45.58034      107.13684
H         52.77438       44.28964      106.74007
H         55.02697       44.25960      104.92191
H         53.56688       46.62383      106.20466
H         55.19141       46.64281      105.38018
H         55.46002       46.38657      107.57788
N         52.34156       44.79514      103.26196
C         51.89162       45.07134      101.90172
C         52.99482       44.68254      100.93230
O         53.43171       45.50664      100.13842
C         51.45358       46.53641      101.75464
H         51.75932       44.16286      103.82289
H         50.99771       44.44197      101.69242
H         52.29396       47.23454      101.94938
H         51.07227       46.71728      100.72631
H         50.63425       46.75732      102.47110
N         53.53795       43.43418      101.00137
C         54.69436       43.02818      100.20531
C         54.99112       41.53873      100.33675
O         54.42545       40.87110      101.19300
C         55.93374       43.84533      100.62248
H         53.11116       42.76849      101.66383
H         54.45446       43.20988       99.13550
H         56.83627       43.53151      100.05952
H         55.78970       44.92996      100.45289
H         56.12694       43.72258      101.70574
N         55.83475       40.93813       99.44119
C         56.15422       39.50650       99.40485
C         54.93733       38.61340       99.15876
O         55.12087       37.40365       99.12191
C         56.87090       39.06332      100.69840
C         58.17227       39.83784      100.93299
C         58.69907       39.55851      102.30336
O         57.89994       39.84268      103.34478
O         59.83768       39.15745      102.48035
H         56.27499       41.53019       98.71986
H         56.85694       39.32884       98.55987
H         57.12154       37.97984      100.65371
H         56.17986       39.20911      101.55422
H         57.96816       40.92801      100.89824
H         58.92258       39.59671      100.14870
N         53.67469       39.10125       98.98189
C         52.53545       38.22517       98.82410
H         51.60748       38.82665       98.71875
H         52.66196       37.59281       97.92130
H         52.43345       37.57902       99.72290
H         53.48715       40.11061       98.96380
Ca        58.53176       40.28327      105.43461
O         56.43252       42.41695      106.35959
H         55.47487       42.51859      106.57450
H         56.81580       42.01538      107.17460
O         55.19088       39.58873      105.60983
H         54.48713       39.03470      105.18916
H         55.33426       39.17588      106.49634
O         56.24445       42.01803      103.61192
H         55.66929       41.21985      103.70362
H         56.71363       41.87146      102.75567
O         59.27910       43.03595      104.47706
H         59.83908       43.49272      105.15353
H         58.64193       43.72973      104.17340
O         61.34594       40.19310      105.24492
H         60.92376       39.35169      104.93578
H         61.39943       40.75436      104.43237

Ca 1.0



