%chk=apoCaM-CA-Ng.loop1.water3.frame1338.chk
%nprocshared=20
%mem=10GB
%nosave
#b3lyp/svp scf=(tight,noincore,xqc) Test 
#IOP(5/87=12) Density=Current Pop=(MK,readradii) iop(6/33=2) iop(6/42=6)

apoCaM-CA-Ng.loop1.water3.frame1338 

   0  1 
C         52.61351       41.37366       20.43305
C         52.63450       42.04095       21.77430
O         51.90042       42.99910       21.96814
H         51.90640       41.89100       19.74854
H         53.62801       41.40569       19.98286
H         52.29288       40.31839       20.54947
N         53.48491       41.60004       22.74626
C         53.58809       42.23078       24.05831
C         54.91255       42.96321       24.15455
O         55.70221       42.73790       25.06097
C         53.33075       41.22393       25.20225
C         54.36854       40.13859       25.32562
O         55.09771       40.03841       26.45385
O         54.54380       39.33433       24.42541
H         54.11985       40.82185       22.51818
H         52.80487       43.01443       24.16301
H         52.33098       40.75859       25.06364
H         53.30641       41.79303       26.15790
N         55.17531       43.91801       23.22554
C         56.33834       44.79125       23.24024
C         55.99734       46.06998       23.98842
O         56.68619       46.33450       24.96472
C         56.87559       45.02227       21.81257
C         57.42929       43.72089       21.22023
C         57.78282       43.89365       19.74092
C         58.47092       42.63581       19.19892
N         58.70882       42.74870       17.76122
H         54.45731       44.07162       22.50842
H         57.16752       44.31136       23.81096
H         57.69778       45.77120       21.83569
H         56.08959       45.41513       21.14530
H         56.67469       42.90731       21.29683
H         58.32947       43.42784       21.80456
H         58.46251       44.76270       19.60411
H         56.84277       44.08268       19.17546
H         57.83933       41.74040       19.39238
H         59.44156       42.50217       19.72764
H         59.23519       41.90626       17.43543
H         57.79432       42.79197       17.25492
H         59.27047       43.60514       17.55000
N         54.94408       46.89682       23.70931
C         53.95687       46.75857       22.63707
C         52.64979       46.25183       23.22055
O         52.62489       45.88205       24.38731
C         53.84549       48.08033       21.85232
C         53.36373       49.19234       22.70717
O         52.13486       49.18856       23.25104
O         54.13878       50.08742       23.00245
H         54.78716       47.67016       24.37661
H         54.25148       46.03073       21.88212
H         53.18070       47.98964       20.97406
H         54.86345       48.33058       21.47804
N         51.52192       46.18558       22.46198
C         50.27252       45.63586       22.95838
C         49.24361       46.70934       23.17325
O         49.53649       47.88126       22.99697
H         51.53384       46.54795       21.49760
H         50.40900       45.11373       23.92855
H         49.90027       44.89130       22.22270
N         48.00207       46.36183       23.60444
C         46.92298       47.31947       23.83942
C         45.71138       46.92290       22.99683
O         45.75633       45.85756       22.39547
C         46.61198       47.31097       25.34875
C         47.83113       47.68792       26.14465
O         48.35249       48.78075       25.98902
O         48.36037       46.81545       27.02357
H         47.81528       45.36341       23.79142
H         47.23994       48.33951       23.53517
H         46.28001       46.29246       25.64961
H         45.81294       48.02287       25.60974
N         44.58286       47.67859       22.84784
C         44.31092       49.00016       23.38781
C         45.22451       50.06710       22.82874
O         45.40592       50.13116       21.62158
H         43.83061       47.27789       22.26445
H         44.28520       48.99905       24.49310
H         43.28414       49.28157       23.06755
N         45.74526       51.01301       23.65791
C         46.53261       52.15380       23.19434
C         47.89937       51.72119       22.69577
O         48.59551       51.01609       23.40878
C         46.66897       53.20533       24.32133
C         47.46323       54.43953       23.86703
O         47.28155       52.64199       25.45329
H         45.49915       50.95851       24.65806
H         45.97577       52.66944       22.37968
H         45.64040       53.56240       24.57386
H         46.59275       52.56864       26.16448
H         46.98469       54.90205       22.97739
H         47.49638       55.19095       24.68285
H         48.50821       54.17169       23.60184
N         48.35621       52.18172       21.49037
C         49.66688       51.90406       20.90271
C         50.79472       52.43051       21.78366
O         51.01174       51.87984       22.85510
C         49.85351       50.38233       20.62289
C         48.68961       49.81381       19.77148
C         51.20793       50.11321       19.93156
C         48.60563       48.28640       19.82568
H         47.73399       52.79280       20.94070
H         49.70609       52.43812       19.92541
H         49.85038       49.86952       21.60195
H         48.78406       50.16569       18.72174
H         47.71512       50.16970       20.16244
H         52.05359       50.48445       20.54511
H         51.37519       49.03059       19.77486
H         51.24828       50.62465       18.94600
H         48.37981       47.96964       20.86119
H         47.76775       47.93342       19.19149
H         49.53827       47.79381       19.48890
N         51.59549       53.45837       21.37620
C         52.80213       53.84771       22.10188
C         52.72790       55.21739       22.75507
O         53.68306       55.55552       23.43277
C         54.05288       53.70969       21.19439
C         54.04361       54.63651       19.97531
O         54.16251       52.38543       20.74289
H         51.36426       53.94650       20.49706
H         52.96801       53.15505       22.95801
H         54.96085       53.97871       21.78701
H         54.67596       51.89121       21.43146
H         53.20104       54.39965       19.29454
H         53.97694       55.69891       20.28851
H         54.98620       54.49789       19.40347
N         51.63955       56.04540       22.65277
C         51.57541       57.28829       23.42832
C         51.56297       56.92585       24.91098
O         50.57167       56.39414       25.38686
C         50.35310       58.15719       23.03123
C         50.50036       58.70529       21.60772
O         49.16248       57.41249       23.10788
H         50.84995       55.77759       22.05238
H         52.48767       57.88619       23.20722
H         50.30273       59.05008       23.69995
H         48.75294       57.59103       23.99317
H         50.57246       57.88370       20.86462
H         49.62263       59.33659       21.35224
H         51.41257       59.33603       21.53317
N         52.70178       57.08304       25.65872
C         52.91868       56.58218       27.02093
C         52.75463       55.07508       27.11814
O         52.00661       54.50111       26.34427
C         52.02005       57.24743       28.07633
C         52.21093       58.76470       28.14772
C         51.34219       59.35209       29.27140
C         51.38073       60.88689       29.33269
N         52.70908       61.40781       29.65890
H         53.51666       57.52326       25.20606
H         53.97633       56.81023       27.28552
H         52.27782       56.81685       29.07065
H         50.95334       57.01433       27.86854
H         51.91810       59.21430       27.17469
H         53.28188       58.98498       28.34397
H         51.65692       58.93071       30.25237
H         50.28589       59.05506       29.09159
H         50.66590       61.21687       30.11899
H         51.03869       61.30633       28.36109
H         53.02939       61.02812       30.57923
H         53.39798       61.16823       28.91167
H         52.65271       62.44975       29.72632
N         53.41441       54.35865       28.07422
C         53.17502       52.93238       28.27408
C         53.29610       52.14132       26.96814
O         52.68924       50.90404       27.17463
C         54.09944       52.31203       29.34352
C         53.80257       52.82022       30.75209
C         54.74329       52.18405       31.73352
O         54.26635       51.38907       32.70973
O         55.94561       52.37919       31.64705
H         54.08688       54.84833       28.68288
H         52.11408       52.81593       28.59353
H         55.15937       52.50890       29.06899
H         53.95191       51.20778       29.36130
H         52.75555       52.54853       31.01153
H         53.90982       53.92198       30.80892
N         54.67881       51.92934       26.49283
C         55.34396       53.16060       26.07167
H         56.27633       52.90301       25.52302
H         54.69698       53.75888       25.39496
H         55.64706       53.75231       26.95735
H         54.63225       51.32479       25.64044
Ca        52.42637       50.34621       25.06895
O         50.01595       52.84807       25.44832
H         50.45630       52.38124       26.19989
H         49.61387       53.65368       25.86129
O         49.51948       50.86480       28.11779
H         49.01534       50.02385       28.25130
H         48.82142       51.55222       27.97303
O         51.71510       47.77242       26.55370
H         51.35630       47.82616       25.63269
H         50.91408       47.82901       27.13150

Ca 1.0



