%chk=apoCaM-CA-Ng.loop1.water2.frame296.chk
%nprocshared=20
%mem=10GB
%nosave
#b3lyp/svp scf=(tight,noincore,xqc) Test 
#IOP(5/87=12) Density=Current Pop=(MK,readradii) iop(6/33=2) iop(6/42=6)

apoCaM-CA-Ng.loop1.water2.frame296 

   0  1 
C         59.37438       57.37199       45.23905
C         58.47851       57.86185       44.13814
O         58.98095       58.34044       43.13155
H         59.99817       58.20696       45.61638
H         58.78776       56.95434       46.08533
H         60.03318       56.56787       44.84718
N         57.12869       57.73671       44.24697
C         56.21513       58.08498       43.16687
C         55.93053       59.58663       43.07748
O         55.14328       59.94265       42.22853
C         54.86976       57.32746       43.33641
C         55.02324       55.82608       43.29441
O         55.73202       55.17818       44.23848
O         54.47774       55.18182       42.41200
H         56.74803       57.28459       45.09232
H         56.63919       57.73294       42.20069
H         54.19537       57.60791       42.49814
H         54.37601       57.62005       44.28825
N         56.47974       60.54064       43.87850
C         55.97310       61.92242       43.88572
C         56.93598       62.91494       43.25355
O         58.10097       62.88066       43.62520
C         55.69538       62.35144       45.33599
C         54.54559       61.56271       45.97669
C         54.34189       62.02661       47.42310
C         53.14371       61.33403       48.08003
N         52.99806       61.76837       49.46953
H         57.21646       60.28308       44.55168
H         55.01664       61.98659       43.35168
H         55.40972       63.42630       45.34645
H         56.62444       62.23584       45.93745
H         54.76633       60.47291       45.96674
H         53.61686       61.74422       45.39130
H         54.16818       63.12531       47.43969
H         55.26327       61.80209       48.00433
H         53.28353       60.23084       48.05312
H         52.21794       61.58654       47.51571
H         53.84776       61.50056       50.01802
H         52.86576       62.80526       49.51288
H         52.16278       61.30230       49.89097
N         56.55947       63.90724       42.36859
C         55.21922       64.20121       41.82041
C         54.17771       64.40515       42.91133
O         53.27221       63.59550       43.04414
C         54.79789       63.18119       40.74541
C         55.70387       63.22663       39.55322
O         56.72896       64.09909       39.49528
O         55.52937       62.44223       38.63509
H         57.30401       64.56045       42.07819
H         55.25637       65.16327       41.26149
H         53.77796       63.41900       40.38180
H         54.80003       62.15605       41.15186
N         54.20801       65.47822       43.74306
C         55.12071       66.59530       43.55648
C         55.07056       67.58076       44.70183
O         54.42954       67.30893       45.70724
H         53.50075       65.51293       44.49285
H         54.85575       67.09975       42.60307
H         56.16699       66.23174       43.50231
N         55.78106       68.74056       44.67944
C         56.51727       69.24192       43.52282
C         55.57157       69.77204       42.45246
O         54.63182       70.48262       42.78483
C         57.52382       70.35178       43.91870
C         56.92396       71.60871       44.50373
O         57.06292       72.67347       43.92395
O         56.28343       71.58649       45.68770
H         55.79016       69.28650       45.55057
H         57.15779       68.43214       43.10771
H         58.09033       70.62751       43.00011
H         58.25551       69.93761       44.64505
N         55.85194       69.58244       41.13148
C         55.10987       70.24062       40.06875
C         53.77345       69.60491       39.80359
O         52.75571       70.26836       39.94880
H         56.70017       69.05751       40.87184
H         55.68435       70.17210       39.12028
H         55.00366       71.32270       40.30805
N         53.71130       68.33108       39.32077
C         52.45578       67.71155       38.91201
C         51.52257       67.56452       40.09326
O         51.97102       67.33628       41.20921
C         52.66190       66.35210       38.20030
C         53.48804       66.51772       36.91445
O         51.40541       65.82263       37.85568
H         54.59438       67.81564       39.19155
H         51.97128       68.38231       38.16449
H         53.18046       65.65784       38.90119
H         51.53955       64.86055       37.65089
H         53.59501       65.53717       36.40592
H         52.97930       67.21770       36.21606
H         54.50474       66.90437       37.12679
N         50.18716       67.72010       39.89771
C         49.20076       67.66535       40.96624
C         49.21610       66.28103       41.60271
O         49.29939       66.19873       42.81946
C         47.77783       68.05937       40.44058
C         47.80442       69.48492       39.80111
C         46.75749       68.02338       41.59944
C         46.47395       69.93276       39.19162
H         49.86828       67.88550       38.93234
H         49.46220       68.42508       41.73872
H         47.46321       67.32338       39.66758
H         48.53214       69.52349       38.96817
H         48.12498       70.23509       40.55642
H         45.73204       68.24652       41.24423
H         46.71216       67.01741       42.06346
H         47.03312       68.76457       42.38137
H         46.13725       69.20572       38.42270
H         45.68852       70.05352       39.96320
H         46.61173       70.92179       38.70371
N         49.15853       65.15359       40.83099
C         49.09022       63.79916       41.38668
C         50.33539       62.97447       41.07314
O         51.21792       63.44027       40.36993
C         47.79323       63.10020       40.90626
C         47.74564       62.90294       39.38481
O         46.67524       63.85531       41.29497
H         49.15892       65.26713       39.80831
H         49.04714       63.85390       42.49658
H         47.72201       62.08614       41.36125
H         46.58741       63.75312       42.27885
H         46.81225       62.37080       39.10738
H         47.74708       63.87299       38.84704
H         48.60946       62.29702       39.03917
N         50.48560       61.74322       41.65397
C         51.70865       60.94131       41.57000
C         51.96151       60.36202       40.17477
O         51.18522       60.59659       39.25824
C         51.72288       59.84911       42.68781
C         50.79529       58.65967       42.42144
O         51.40348       60.44470       43.92140
H         49.73541       61.42032       42.28185
H         52.55820       61.60196       41.82240
H         52.75114       59.44346       42.75944
H         51.75852       59.85432       44.63712
H         51.10196       58.13403       41.49246
H         50.88695       57.93067       43.25615
H         49.73914       58.98070       42.33398
N         53.03874       59.55109       39.97585
C         53.39956       58.86871       38.74952
C         54.82601       59.22789       38.33311
O         55.00081       59.69749       37.21876
C         53.21524       57.35217       38.99171
C         53.60483       56.49521       37.77721
C         53.15184       55.02615       37.88292
C         51.61676       54.88768       37.81962
N         51.20952       53.48927       37.69402
H         53.61969       59.32658       40.77489
H         52.70861       59.15564       37.92497
H         52.14028       57.21761       39.22524
H         53.79878       57.00584       39.87485
H         54.71223       56.52548       37.67419
H         53.16075       56.92112       36.85288
H         53.55119       54.54727       38.80480
H         53.57832       54.49370       37.00561
H         51.23818       55.44302       36.93276
H         51.14685       55.31955       38.72836
H         51.60277       53.08121       36.81464
H         51.53473       52.93815       38.52028
H         50.16558       53.44460       37.64143
N         55.89335       59.00550       39.16111
C         57.28903       59.20530       38.76568
C         57.98652       57.86905       38.84937
O         58.06945       57.29892       39.92893
C         57.99270       60.26033       39.65593
C         59.51983       60.39092       39.41654
C         59.94130       60.62932       37.98014
O         60.62363       59.79269       37.41142
O         59.61902       61.76052       37.32141
H         55.71690       58.61931       40.09837
H         57.34878       59.57693       37.72007
H         57.84780       60.00542       40.72901
H         57.51156       61.23573       39.48848
H         59.99542       59.44865       39.76388
H         59.91915       61.20978       40.05447
N         58.51049       57.30281       37.73017
C         59.17415       56.02088       37.76230
H         60.05835       56.07002       38.43236
H         58.47040       55.24329       38.12812
H         59.51087       55.74703       36.74053
H         58.43143       57.79030       36.82500
Ca        58.50721       63.35751       38.39904
O         59.15727       66.16840       35.80851
H         58.50093       66.68595       35.27738
H         59.75155       65.75464       35.13318
O         56.53269       64.59021       36.08577
H         56.22340       64.82058       35.17391
H         55.73348       64.21256       36.53053

Ca 1.0



