%chk=apoCaM-CA-Ng.loop1.water3.frame1251.chk
%nprocshared=20
%mem=10GB
%nosave
#b3lyp/svp scf=(tight,noincore,xqc) Test 
#IOP(5/87=12) Density=Current Pop=(MK,readradii) iop(6/33=2) iop(6/42=6)

apoCaM-CA-Ng.loop1.water3.frame1251 

   0  1 
C         27.20722       44.21728       23.53123
C         27.59040       45.65149       23.33108
O         27.97152       46.01146       22.22587
H         26.14271       44.15540       23.83606
H         27.34663       43.64028       22.59116
H         27.84630       43.76723       24.31983
N         27.54098       46.52713       24.37717
C         27.94912       47.92343       24.25980
C         29.23192       48.14149       25.03831
O         29.32602       49.03991       25.86378
C         26.80242       48.88975       24.63795
C         26.36280       48.80548       26.07776
O         25.87392       47.78035       26.52357
O         26.47923       49.88366       26.87660
H         27.25413       46.16786       25.29901
H         28.20405       48.14780       23.20524
H         25.92642       48.69234       23.98313
H         27.14632       49.92793       24.43494
N         30.28661       47.32014       24.78849
C         31.59429       47.45787       25.41259
C         32.25983       48.75852       24.98993
O         32.63367       49.50611       25.88211
C         32.48817       46.23095       25.12675
C         31.86076       44.96599       25.74171
C         32.70969       43.71876       25.49748
C         32.03447       42.49209       26.12851
N         32.81082       41.27893       25.88438
H         30.14485       46.55331       24.11426
H         31.46679       47.47649       26.52003
H         33.48220       46.39273       25.59963
H         32.64655       46.08624       24.03937
H         30.85508       44.78899       25.30545
H         31.74432       45.11628       26.83831
H         33.71883       43.85930       25.94278
H         32.81692       43.55881       24.40243
H         31.01609       42.36476       25.69674
H         31.93048       42.64797       27.22598
H         32.32147       40.46766       26.32691
H         32.88979       41.10642       24.85586
H         33.76406       41.37179       26.30398
N         32.41291       49.17505       23.69489
C         31.93447       48.49864       22.48852
C         30.66941       49.17845       21.99616
O         30.23965       50.14447       22.61491
C         33.07320       48.35854       21.44978
C         33.94229       49.57955       21.25471
O         33.48876       50.74469       20.75120
O         35.12093       49.50754       21.56611
H         32.81763       50.11607       23.56279
H         31.59815       47.47264       22.69926
H         32.68387       47.99733       20.47508
H         33.74542       47.56137       21.84087
N         29.95845       48.67116       20.94392
C         28.63059       49.16173       20.59158
C         28.60373       49.88652       19.27847
O         29.61349       49.96453       18.60133
H         30.33710       47.87476       20.40842
H         28.26917       49.88892       21.34886
H         27.91095       48.31521       20.58160
N         27.46519       50.52512       18.89893
C         27.38358       51.40934       17.73884
C         26.27946       50.94375       16.80039
O         25.53946       50.04601       17.18154
C         27.10385       52.82937       18.27757
C         28.18973       53.27397       19.21972
O         27.90092       53.53214       20.50994
O         29.33750       53.39331       18.82238
H         26.63517       50.44795       19.50985
H         28.34238       51.40259       17.17953
H         26.13401       52.82187       18.82432
H         27.03011       53.57819       17.47375
N         26.06385       51.45791       15.55254
C         26.86537       52.44815       14.84622
C         28.24190       51.93444       14.50044
O         28.35841       50.80069       14.05786
H         25.25811       51.08344       15.02675
H         26.89224       53.42635       15.35977
H         26.36682       52.63769       13.87146
N         29.32522       52.75829       14.57727
C         30.66330       52.33965       14.17100
C         31.20375       51.30110       15.13174
O         31.08770       51.48929       16.33323
C         31.62460       53.54983       14.06078
C         32.98782       53.14463       13.47849
O         31.81564       54.15898       15.31201
H         29.17813       53.73400       14.87763
H         30.60650       51.92070       13.14043
H         31.18739       54.27701       13.33415
H         31.23901       54.96570       15.34235
H         33.50999       52.41740       14.13339
H         32.85765       52.68081       12.47644
H         33.63398       54.03995       13.36534
N         31.86403       50.20877       14.65034
C         32.47730       49.15719       15.45680
C         33.50100       49.75475       16.41741
O         33.10559       50.28374       17.44712
C         31.41134       48.30440       16.21169
C         30.28383       47.83031       15.25863
C         32.07426       47.11431       16.93503
C         29.10917       47.16955       15.98668
H         31.97413       50.12396       13.62802
H         33.00278       48.48165       14.74401
H         30.94625       48.95340       16.96816
H         30.69061       47.13957       14.48950
H         29.85614       48.71139       14.73812
H         31.33907       46.55318       17.54570
H         32.53385       46.42116       16.19848
H         32.86183       47.46194       17.63521
H         29.41040       46.22557       16.48169
H         28.68602       47.86491       16.74396
H         28.31106       46.92694       15.25384
N         34.83705       49.69106       16.15571
C         35.84457       50.19101       17.09084
C         36.69935       51.32188       16.53015
O         37.54842       51.79125       17.27597
C         36.72087       49.01813       17.59948
C         37.52118       48.32729       16.49042
O         35.91084       48.05987       18.22948
H         35.14672       49.25485       15.27526
H         35.35571       50.62288       17.99209
H         37.46373       49.40894       18.33505
H         35.67064       48.42776       19.11942
H         38.18819       49.05070       15.97670
H         38.14920       47.52597       16.93376
H         36.84969       47.85586       15.74403
N         36.55766       51.82894       15.26550
C         37.41506       52.91399       14.77922
C         37.17689       54.16202       15.62191
O         36.12417       54.76809       15.48988
C         37.16721       53.18834       13.27289
C         38.08883       54.28311       12.71972
O         37.38462       52.00237       12.55168
H         35.85032       51.42743       14.63317
H         38.47039       52.57668       14.89074
H         36.10672       53.51173       13.14928
H         36.87279       52.08032       11.70395
H         37.92483       55.24594       13.24709
H         39.15327       53.98540       12.82797
H         37.87304       54.44360       11.64150
N         38.10006       54.54844       16.55606
C         37.94657       55.64609       17.51358
C         36.72600       55.47615       18.40790
O         35.62032       55.32476       17.91151
C         37.95109       57.04344       16.87427
C         39.26191       57.32223       16.11274
C         39.48757       58.82040       15.83360
C         39.85671       59.60005       17.11709
N         40.12024       61.00873       16.83027
H         38.96272       53.98925       16.64007
H         38.84209       55.63744       18.17652
H         37.86644       57.74542       17.72742
H         37.07615       57.21445       16.21108
H         39.22464       56.75584       15.15708
H         40.14271       56.95869       16.68700
H         38.59195       59.25761       15.34184
H         40.34827       58.91088       15.13591
H         40.77134       59.14758       17.56373
H         39.04757       59.54507       17.87299
H         40.40378       61.48794       17.71623
H         40.89646       61.09953       16.13576
H         39.25466       61.46504       16.46206
N         36.84480       55.57494       19.76125
C         35.69868       55.42378       20.64673
C         35.26352       53.96604       20.70811
O         34.10762       53.71281       20.40323
C         35.95091       56.03036       22.04227
C         36.15563       57.55221       21.95585
C         36.30540       58.15173       23.32315
O         37.32379       57.77542       24.11962
O         35.50822       58.98827       23.71710
H         37.76411       55.80677       20.16762
H         34.84737       56.02029       20.24142
H         36.82414       55.57619       22.54084
H         35.04960       55.84170       22.66779
H         35.27682       58.01318       21.45117
H         37.06249       57.78819       21.36004
N         36.08088       52.92809       21.05784
C         37.48065       53.03173       21.40931
H         38.06439       53.46418       20.57302
H         37.61688       53.61705       22.33468
H         37.88651       52.01737       21.61038
H         35.68333       51.97974       21.04937
Ca        31.45348       51.34516       20.02603
O         31.84407       55.25208       18.94387
H         31.07037       55.82365       18.70986
H         31.98521       55.41155       19.91072
O         31.15046       53.46440       22.17764
H         30.52363       52.84871       22.63346
H         30.61875       53.85318       21.43868
O         33.54854       53.10697       17.30554
H         34.31804       53.04766       17.92203
H         33.90313       52.76327       16.44870

Ca 1.0



