%chk=apoCaM-CA-Ng.loop2.water5.frame471.chk
%nprocshared=20
%mem=10GB
%nosave
#b3lyp/svp scf=(tight,noincore,xqc) Test 
#IOP(5/87=12) Density=Current Pop=(MK,readradii) iop(6/33=2) iop(6/42=6)

apoCaM-CA-Ng.loop2.water5.frame471 

   -2  1 
C         41.50708       35.04678       73.89159
C         41.63439       34.06781       72.75950
O         42.70299       33.50639       72.56415
H         40.72023       34.69998       74.59538
H         42.46341       35.13798       74.44975
H         41.22001       36.04364       73.49778
N         40.54974       33.78720       71.98805
C         40.56331       32.78994       70.92537
C         41.40819       33.22485       69.73904
O         41.09954       34.24071       69.13063
C         39.12374       32.52702       70.43235
C         39.08481       31.44443       69.38633
O         39.52060       30.20433       69.68006
O         38.66504       31.68672       68.26603
H         39.66073       34.26009       72.21663
H         40.94200       31.83319       71.35086
H         38.69328       33.46692       70.01837
H         38.49141       32.20681       71.28771
N         42.43357       32.43951       69.30214
C         43.11505       32.64468       68.02755
C         44.58467       32.97676       68.21844
O         45.02545       33.13849       69.34853
C         42.89743       31.38733       67.17329
H         42.68974       31.60389       69.85129
H         42.67145       33.49873       67.47100
H         43.32333       31.49850       66.15603
H         43.34821       30.49635       67.65895
H         41.80614       31.21159       67.05125
N         45.39886       33.12596       67.13065
C         46.78359       33.58458       67.21281
C         47.76383       32.42597       67.24509
O         47.34474       31.27876       67.16903
C         47.08625       34.62965       66.11144
C         47.08024       34.08289       64.70294
O         48.09844       34.12800       64.03155
O         45.95510       33.58928       64.15211
H         45.00793       32.92291       66.20439
H         46.92365       34.10590       68.18550
H         48.08661       35.06972       66.30892
H         46.34736       35.45682       66.18051
N         49.09213       32.66819       67.45540
C         50.06693       31.61894       67.72272
C         50.61189       31.70825       69.14504
O         51.31007       30.79206       69.55473
H         49.41709       33.64510       67.49484
H         50.89861       31.67199       66.98717
H         49.59462       30.61947       67.62027
N         50.34435       32.77573       69.95647
C         50.75939       32.87232       71.35065
C         49.87487       31.99114       72.21168
O         48.66048       32.11613       72.12638
C         50.61361       34.33393       71.82922
C         50.99843       34.49800       73.27992
N         50.09637       34.94969       74.18142
O         52.13072       34.21716       73.64392
H         49.82052       33.57577       69.58126
H         51.83757       32.61052       71.45120
H         49.56341       34.66804       71.67929
H         51.26986       34.98676       71.21357
H         49.13587       35.18824       73.89335
H         50.35663       35.05804       75.17253
N         50.41729       31.13833       73.12352
C         49.61374       30.34336       74.04131
C         49.86216       30.74148       75.48125
O         50.62843       31.65954       75.74178
H         51.44424       31.07502       73.20264
H         49.88387       29.27414       73.90483
H         48.52667       30.44881       73.84159
N         49.26009       30.03916       76.48277
C         49.57241       30.25580       77.89648
C         48.95067       31.52372       78.49344
O         49.35833       31.88526       79.58940
C         49.25312       28.99326       78.74785
C         47.76341       28.61910       78.80930
O         50.01493       27.89673       78.30116
H         48.66679       29.24420       76.20649
H         50.67733       30.37779       77.96541
H         49.57392       29.19723       79.79259
H         49.64220       27.58655       77.43527
H         47.17946       29.44207       79.25329
H         47.35001       28.38685       77.80685
H         47.63284       27.72189       79.45072
N         47.96556       32.23735       77.86745
C         47.41320       33.49747       78.39540
C         47.52897       34.60277       77.35485
O         48.00442       34.32920       76.26083
C         45.94679       33.35529       78.92959
C         44.80426       33.20743       77.88500
C         45.85729       32.28454       80.02455
C         44.78609       31.93891       77.03439
H         47.61070       31.87789       76.97523
H         48.01305       33.82391       79.27368
H         45.71514       34.30939       79.45090
H         44.80266       34.08551       77.20525
H         43.84364       33.23487       78.44638
H         46.60139       32.48837       80.82449
H         44.84790       32.28896       80.48866
H         46.04680       31.28109       79.61101
H         44.78702       31.02782       77.66655
H         43.85852       31.93361       76.42384
H         45.62377       31.91823       76.31881
N         47.07322       35.86935       77.60494
C         47.09345       36.92480       76.59804
C         47.73488       38.19622       77.15431
O         47.17703       39.27673       77.02312
C         45.64832       37.10379       76.09028
C         45.52576       38.07366       74.95770
O         44.67167       39.10422       75.05928
O         46.16404       37.91337       73.92993
H         46.63161       36.08239       78.51158
H         47.71261       36.60626       75.73136
H         44.98785       37.41635       76.92978
H         45.28664       36.11967       75.71945
N         48.92520       38.11472       77.81335
C         49.67372       39.25418       78.35122
C         48.80352       40.19308       79.19561
O         48.16244       39.71003       80.11835
C         50.81939       38.71605       79.24814
C         51.58905       39.81235       79.95335
C         52.42663       40.68812       79.24376
C         51.45299       39.97255       81.34462
C         53.10441       41.71325       79.91401
C         52.12792       40.99868       82.00909
C         52.95212       41.87001       81.29465
H         49.32056       37.17124       77.95045
H         50.11060       39.79959       77.49522
H         51.51919       38.07938       78.66468
H         50.34587       38.06313       80.01503
H         52.55157       40.58014       78.17382
H         50.80999       39.31359       81.91494
H         53.74488       42.38976       79.36346
H         52.00686       41.11975       83.07794
H         53.47188       42.66595       81.81205
N         48.78917       41.55619       79.00298
C         48.10471       42.49621       79.88587
C         46.60180       42.35087       79.90406
O         45.99637       42.58618       80.94020
C         48.46591       43.87401       79.31252
C         49.83557       43.61745       78.73349
C         49.60273       42.28204       78.04103
H         48.53683       42.40032       80.90816
H         47.80441       44.11841       78.44868
H         48.40396       44.70468       80.04853
H         50.22364       44.42061       78.07188
H         50.55063       43.46464       79.57552
H         49.01287       42.42361       77.10774
H         50.58509       41.84140       77.81105
N         45.92825       42.03521       78.76164
C         44.47071       42.02341       78.67404
C         43.83458       41.00490       79.60981
O         42.63201       41.08885       79.82166
C         44.00717       41.68100       77.24408
C         44.50399       42.63843       76.14548
C         44.12100       42.07172       74.81000
O         42.94688       41.89876       74.52312
O         45.08294       41.65197       73.96632
H         46.48489       41.82952       77.92090
H         44.10959       43.03921       78.95081
H         42.89479       41.65994       77.20844
H         44.38112       40.65794       77.02239
H         45.60894       42.72066       76.16544
H         44.07812       43.65505       76.28010
N         44.54925       39.98398       80.16112
C         43.93451       38.99871       81.02210
H         43.11223       38.48286       80.48125
H         44.68731       38.24138       81.32714
H         43.53058       39.49113       81.93162
H         45.54936       39.87341       79.94746
Ca        44.52523       40.25697       72.28141
O         44.09400       38.63358       69.79458
H         44.03982       39.27463       69.04232
H         43.23438       38.14348       69.76572
O         47.10041       40.45019       70.93753
H         46.95084       40.24468       69.98063
H         47.80894       39.82019       71.22214
O         43.77062       36.93847       72.49862
H         43.03187       36.75100       71.86769
H         44.54893       36.45943       72.11819
O         41.60410       39.50253       72.49032
H         41.08480       40.26939       72.14012
H         41.21339       38.71092       72.04221
O         43.89237       42.34812       70.48323
H         43.08966       42.83457       70.79747
H         43.57523       41.81040       69.71484

Ca 1.0



