%chk=apoCaM-CA-Ng.loop4.water5.frame618.chk
%nprocshared=20
%mem=10GB
%nosave
#b3lyp/svp scf=(tight,noincore,xqc) Test 
#IOP(5/87=12) Density=Current Pop=(MK,readradii) iop(6/33=2) iop(6/42=6)

apoCaM-CA-Ng.loop4.water5.frame618 

   -3  1 
C         91.52295       21.09069       68.85899
C         92.65562       20.94971       67.88607
O         92.47987       21.28619       66.72551
H         90.66125       20.48223       68.51341
H         91.81333       20.74257       69.87301
H         91.21915       22.15595       68.92433
N         93.85767       20.45666       68.29790
C         95.02034       20.25833       67.43644
C         95.46690       21.58738       66.82693
O         95.70049       21.66166       65.62698
C         94.71216       19.19590       66.35307
C         94.06220       17.96131       66.92286
O         94.70574       17.13441       67.76362
O         92.90933       17.70079       66.62229
H         93.96772       20.19814       69.29071
H         95.84306       19.87722       68.08198
H         95.63160       18.92141       65.79256
H         93.99985       19.63646       65.62246
N         95.52038       22.70920       67.60265
C         95.77030       24.04036       67.04733
C         97.26092       24.29260       66.82773
O         98.04642       23.79824       67.62412
C         95.18629       25.17824       67.94215
C         95.85370       25.23425       69.34557
C         93.65392       25.05093       68.03915
C         95.44930       26.45312       70.16949
H         95.22894       22.61912       68.58504
H         95.21448       24.08827       66.09163
H         95.40135       26.13809       67.42144
H         96.95355       25.30509       69.23136
H         95.62540       24.31939       69.92953
H         93.35737       24.11807       68.56140
H         93.21233       25.91640       68.57135
H         93.20565       25.04317       67.02625
H         96.00724       26.43907       71.12964
H         95.70881       27.38455       69.62283
H         94.36764       26.44524       70.40603
N         97.76580       25.07518       65.82388
C         96.99908       25.60396       64.70178
C         97.19129       24.70051       63.49903
O         96.35703       24.73709       62.61362
C         97.42067       27.03989       64.32262
C         97.13068       28.04544       65.39812
O         95.98180       28.24520       65.75928
O         98.13199       28.77055       65.93164
H         98.79108       25.18884       65.78846
H         95.92157       25.63800       64.93191
H         96.86610       27.36024       63.41160
H         98.50622       27.05215       64.07993
N         98.27400       23.87909       63.37720
C         98.51183       23.02414       62.23217
C         98.61795       23.82256       60.95317
O         99.36932       24.78635       60.90453
H         98.99347       23.85322       64.11053
H         97.71120       22.25563       62.16209
H         99.47598       22.49510       62.38969
N         97.91687       23.43265       59.85283
C         97.99791       24.11244       58.56007
C         97.23703       25.43905       58.50817
O         97.30771       26.10953       57.48818
C         97.52234       23.16786       57.42813
C         96.11048       22.63921       57.54727
O         95.32969       22.92525       58.60774
O         95.67744       21.90383       56.67542
H         97.37731       22.55773       59.92582
H         99.06949       24.32526       58.34739
H         98.20205       22.28856       57.40445
H         97.62535       23.69751       56.45646
N         96.48064       25.88127       59.54962
C         95.69602       27.10548       59.53094
C         94.43627       27.01005       58.68945
O         93.66638       27.95789       58.72182
H         96.45226       25.33348       60.40825
H         96.32788       27.96805       59.22805
H         95.34355       27.29673       60.56911
N         94.12696       25.89599       57.95572
C         92.88681       25.68345       57.21645
C         91.67713       25.51914       58.13397
O         90.57775       25.40053       57.61288
C         92.65451       26.79034       56.15349
C         93.85457       26.98922       55.21112
C         94.22462       25.72170       54.48310
N         95.45174       25.17195       54.63780
O         93.40800       25.18422       53.75023
H         94.79706       25.12784       57.90712
H         92.97280       24.71909       56.66768
H         92.43126       27.76262       56.63943
H         91.76239       26.52360       55.54503
H         94.72047       27.35983       55.80072
H         93.60226       27.77233       54.46404
H         96.15357       25.61119       55.24906
H         95.70337       24.30182       54.14683
N         91.79363       25.49709       59.49890
C         90.64218       25.46714       60.39858
C         90.65565       24.29467       61.38338
O         89.69503       24.20073       62.13821
C         90.54879       26.82794       61.15658
C         91.78788       27.12430       62.01767
C         90.31588       27.98681       60.17647
H         92.72236       25.56055       59.93048
H         89.70170       25.35692       59.81621
H         89.66687       26.79278       61.83375
H         91.92562       26.31760       62.75568
H         92.70921       27.22096       61.40645
H         91.65444       28.07559       62.57413
H         90.20375       28.94245       60.73145
H         91.16381       28.09239       59.46939
H         89.38705       27.81286       59.59381
N         91.67444       23.38429       61.47425
C         91.69358       22.32293       62.48753
C         91.81339       20.93031       61.89149
O         91.99700       20.77591       60.69123
C         92.86166       22.57831       63.46110
C         92.60589       23.81105       64.28871
N         93.40035       24.89590       64.18068
O         91.66462       23.82767       65.06788
H         92.49157       23.46580       60.85047
H         90.74610       22.31416       63.07059
H         93.80491       22.66792       62.87681
H         92.99440       21.73553       64.17022
H         94.17096       24.90897       63.50652
H         93.22561       25.73838       64.74749
N         91.68948       19.85644       62.72542
C         91.80956       18.45664       62.33695
C         90.48771       17.74159       62.57734
O         89.79705       18.05555       63.53683
C         92.93186       17.81798       63.18166
C         93.12224       16.34039       62.92386
C         92.92753       15.40953       63.95991
C         93.49773       15.87687       61.65292
C         93.08861       14.04267       63.72429
C         93.65636       14.50685       61.41910
C         93.44753       13.58559       62.45075
O         93.59407       12.26744       62.20853
H         91.49217       20.04186       63.72267
H         92.07912       18.36419       61.26234
H         92.67563       17.97648       64.24481
H         93.89091       18.34489       62.98595
H         92.64410       15.73509       64.95115
H         93.66310       16.57456       60.84253
H         92.93298       13.33844       64.53059
H         93.93986       14.16082       60.43374
H         93.44505       11.59963       62.89353
N         90.09814       16.73398       61.74700
C         88.84446       15.99985       61.86965
C         89.13135       14.52659       62.16093
O         89.08727       13.73040       61.23175
C         88.04297       16.13450       60.55346
C         87.57024       17.56631       60.28021
C         86.81271       17.62447       58.98344
O         87.36808       17.33973       57.93378
O         85.51662       17.98965       58.97169
H         90.72607       16.46638       60.97293
H         88.19130       16.40722       62.66281
H         87.13770       15.48866       60.61792
H         88.66826       15.77746       59.70416
H         88.43473       18.26063       60.22300
H         86.90553       17.89170       61.11055
N         89.41522       14.03455       63.40552
C         89.47119       14.79610       64.65409
C         88.12543       15.42344       64.97198
O         87.09797       14.84684       64.63878
C         89.90971       13.85233       65.80173
C         90.23293       14.56518       67.12630
C         90.71990       13.56722       68.14713
O         89.99016       12.64940       68.48763
O         91.95242       13.66090       68.69508
H         89.59852       13.01905       63.46110
H         90.24033       15.58587       64.54572
H         90.83487       13.33057       65.48324
H         89.12370       13.08004       65.96350
H         89.32828       15.07254       67.52273
H         91.02053       15.32773       66.95025
N         88.06142       16.63546       65.58732
C         86.80561       17.31157       65.83022
H         86.14037       16.68178       66.45761
H         86.98904       18.27377       66.35410
H         86.30588       17.52923       64.86150
H         88.93224       17.10042       65.88484
Ca        93.43934       15.33612       68.32083
O         95.14185       12.65287       68.77491
H         95.01405       12.39114       67.82848
H         96.08070       12.41063       68.97552
O         93.83706       14.38107       71.37307
H         93.05873       14.41624       71.98399
H         94.61439       14.23282       71.96830
O         91.35150       16.89983       69.64226
H         90.41201       16.61044       69.75757
H         91.31148       17.61153       68.95517
O         96.49080       15.46302       69.97897
H         97.21280       14.86350       70.29485
H         96.95489       16.14343       69.42950
O         96.05373       14.78943       66.43209
H         96.22135       15.67188       66.01541
H         96.92996       14.52182       66.80755

Ca 1.0



