%chk=apoCaM-CA-Ng.loop2.water4.frame539.chk
%nprocshared=20
%mem=10GB
%nosave
#b3lyp/svp scf=(tight,noincore,xqc) Test 
#IOP(5/87=12) Density=Current Pop=(MK,readradii) iop(6/33=2) iop(6/42=6)

apoCaM-CA-Ng.loop2.water4.frame539 

   -2  1 
C         74.85868       22.75723       40.27470
C         74.68189       21.27843       40.08910
O         73.92338       20.86592       39.22314
H         75.91855       23.03003       40.08714
H         74.21253       23.32664       39.57319
H         74.59070       23.03955       41.31489
N         75.35129       20.41245       40.89752
C         75.23835       18.96359       40.78059
C         75.86858       18.49953       39.48394
O         77.03840       18.78517       39.26767
C         75.94167       18.28303       41.97195
C         75.77927       16.78779       41.92950
O         74.54833       16.24099       41.95548
O         76.76019       16.06374       41.87329
H         75.94999       20.80841       41.63971
H         74.16258       18.68113       40.82761
H         75.49047       18.65162       42.91829
H         77.02249       18.54950       41.97674
N         75.17045       17.74301       38.58880
C         75.78470       17.26237       37.35408
C         76.09790       18.43982       36.42389
O         75.54002       19.50618       36.64526
C         74.86380       16.23454       36.68005
H         74.20173       17.46987       38.81632
H         76.70924       16.73929       37.65058
H         74.66628       15.39903       37.38650
H         73.89659       16.70048       36.39943
H         75.31283       15.78828       35.77619
N         76.97209       18.38339       35.37099
C         77.77453       17.22384       34.98528
C         78.71894       16.76913       36.08760
O         78.99777       17.51684       37.01513
C         78.54458       17.49109       33.66927
C         79.42336       18.71597       33.72602
O         79.22442       19.64583       32.95991
O         80.42724       18.79924       34.61543
H         77.06833       19.24382       34.80888
H         77.08878       16.38521       34.77253
H         77.79901       17.63388       32.85599
H         79.16430       16.60730       33.40457
N         79.18938       15.49088       36.06402
C         79.95317       14.88362       37.14012
C         79.03832       14.31332       38.20838
O         77.83528       14.51496       38.12970
H         78.88455       14.86907       35.30011
H         80.62838       15.62424       37.61881
H         80.57620       14.08451       36.69184
N         79.50986       13.61451       39.28033
C         80.88902       13.16624       39.44381
C         81.68326       14.08109       40.36891
O         82.82284       13.75417       40.67035
C         80.88859       11.70855       39.96437
C         80.00376       10.80121       39.13745
N         78.96594       10.14454       39.71172
O         80.22120       10.66210       37.94305
H         78.83109       13.33221       40.00648
H         81.41774       13.15377       38.47022
H         80.53242       11.69904       41.01717
H         81.92602       11.30816       39.95117
H         78.76742       10.24347       40.71849
H         78.35526        9.53138       39.15149
N         81.16829       15.25893       40.83533
C         81.87909       16.15491       41.73899
C         83.14834       16.80262       41.18547
O         83.76831       17.54179       41.93632
H         80.20891       15.53198       40.57894
H         82.13664       15.58919       42.66051
H         81.18864       16.97547       42.03313
N         83.61464       16.58253       39.92043
C         84.89610       17.10769       39.43097
C         84.77296       18.52219       38.88370
O         83.92346       18.78434       38.04982
C         85.54041       16.14952       38.40413
C         86.07071       14.89754       39.12480
O         84.61593       15.81251       37.40096
H         83.08273       15.95870       39.30044
H         85.62070       17.14781       40.27435
H         86.41607       16.65908       37.94251
H         85.02329       15.10225       36.84048
H         86.56385       14.21502       38.40282
H         86.83702       15.19810       39.87421
H         85.25636       14.35639       39.64685
N         85.62539       19.48667       39.33882
C         85.55395       20.90721       38.99620
C         85.90056       21.17457       37.52896
O         86.99866       20.85249       37.09811
C         86.50197       21.74903       39.92300
C         86.38257       23.26453       39.58697
C         86.17258       21.50736       41.41570
C         87.28699       24.17643       40.41803
H         86.34488       19.18911       40.01072
H         84.52169       21.25669       39.21359
H         87.55351       21.42827       39.74594
H         85.33005       23.59738       39.71891
H         86.67283       23.42571       38.52825
H         85.13433       21.82661       41.64354
H         86.28280       20.44728       41.71215
H         86.87838       22.05211       42.07223
H         88.34925       23.87478       40.30437
H         87.17333       25.22321       40.06657
H         87.00511       24.16357       41.48966
N         85.02457       21.87022       36.74756
C         85.28227       22.36413       35.40087
C         85.22151       23.89341       35.34270
O         85.44625       24.41685       34.25906
C         84.20122       21.82390       34.45295
C         84.22216       20.33324       34.33979
O         85.11859       19.77739       33.72520
O         83.24103       19.60318       34.90185
H         84.11695       22.10984       37.14110
H         86.29143       22.05199       35.04993
H         84.30780       22.24556       33.42815
H         83.21362       22.14922       34.84288
N         84.95168       24.68294       36.43385
C         84.94468       26.14162       36.35986
C         83.70073       26.73990       37.03704
O         83.85456       27.50592       37.97905
C         86.26502       26.65099       36.98348
C         86.51946       28.11251       36.69793
C         86.69129       28.54933       35.37076
C         86.61197       29.04636       37.74309
C         86.94424       29.89486       35.09550
C         86.86358       30.39395       37.46213
C         87.02946       30.81733       36.14010
H         84.81579       24.25973       37.36030
H         84.93953       26.46469       35.29887
H         87.11784       26.08791       36.54479
H         86.25600       26.43840       38.07513
H         86.63808       27.84792       34.54737
H         86.48881       28.73369       38.77240
H         87.07745       30.22036       34.07158
H         86.93269       31.11079       38.26958
H         87.22718       31.85919       35.92422
N         82.42666       26.46726       36.61117
C         81.21860       27.05941       37.18701
C         81.05903       26.85582       38.68356
O         80.36323       27.63665       39.31768
C         80.08461       26.30568       36.48037
C         80.68690       26.02367       35.12562
C         82.11040       25.60982       35.49110
H         81.22322       28.14430       36.93669
H         79.93999       25.31062       36.96410
H         79.10946       26.83939       36.47701
H         80.13473       25.28743       34.50423
H         80.73393       26.99338       34.58001
H         82.17811       24.55808       35.83670
H         82.76143       25.77245       34.60758
N         81.60449       25.76717       39.29172
C         81.43859       25.46500       40.70486
C         82.09671       26.55332       41.52512
O         81.42874       27.17255       42.34193
C         82.02299       24.08233       41.11585
C         81.29976       22.84445       40.52100
C         81.72100       22.42665       39.13839
O         81.17010       21.33893       38.56472
O         82.63142       22.99114       38.57117
H         82.15500       25.14172       38.70965
H         80.35140       25.42691       40.94423
H         81.85544       24.01577       42.21410
H         83.12110       24.01405       40.95356
H         80.20077       22.99348       40.56945
H         81.55320       21.97069       41.15978
N         83.41162       26.85342       41.34015
C         84.07724       27.89309       42.09248
H         85.12918       27.99203       41.74990
H         83.56113       28.86481       41.93796
H         84.07430       27.63795       43.17320
H         83.95511       26.33990       40.62954
Ca        82.12377       20.37893       36.72991
O         78.66792       20.64686       37.23327
H         78.87526       20.09919       38.03083
H         78.41580       21.53034       37.60192
O         82.14977       17.03864       35.94376
H         82.37277       17.02977       36.90726
H         83.02394       17.00354       35.48178
O         80.45490       22.41093       35.23231
H         80.99306       22.61580       36.03642
H         79.55538       22.75822       35.45233
O         80.87522       18.56537       39.44861
H         81.05562       18.96611       40.33607
H         80.13438       17.92890       39.60883

Ca 1.0



