%chk=apoCaM-CA-Ng.loop1.water3.frame122.chk
%nprocshared=20
%mem=10GB
%nosave
#b3lyp/svp scf=(tight,noincore,xqc) Test 
#IOP(5/87=12) Density=Current Pop=(MK,readradii) iop(6/33=2) iop(6/42=6)

apoCaM-CA-Ng.loop1.water3.frame122 

   0  1 
C         63.50859       45.51967      107.84185
C         62.90347       44.51088      108.77166
O         62.67609       44.81536      109.93305
H         64.47514       45.13177      107.45566
H         62.82265       45.69224      106.98522
H         63.68716       46.48357      108.36160
N         62.61637       43.26957      108.30278
C         62.02805       42.20225      109.10571
C         62.96839       41.00236      109.21774
O         62.57138       40.00480      109.79978
C         60.62709       41.86710      108.53889
C         60.56114       41.42766      107.09823
O         59.35725       41.31594      106.51130
O         61.56514       41.20653      106.44231
H         62.82876       43.07529      107.31293
H         61.84984       42.54451      110.14854
H         60.02444       42.79879      108.61629
H         60.13036       41.09880      109.16924
N         64.25294       41.05474      108.75658
C         65.22580       39.96825      108.84509
C         66.37083       40.41134      109.75395
O         66.88283       41.49695      109.51091
C         65.76957       39.66571      107.43115
C         64.68197       39.23260      106.43082
C         64.12418       37.82461      106.69938
C         62.94346       37.46129      105.77941
N         63.27143       37.57170      104.35666
H         64.59535       41.92677      108.32781
H         64.76469       39.05051      109.21770
H         66.55968       38.88414      107.47448
H         66.23638       40.59552      107.03864
H         65.14466       39.22754      105.42166
H         63.86414       39.98089      106.43037
H         63.74868       37.74823      107.73780
H         64.94447       37.08398      106.57114
H         62.07921       38.12396      106.00705
H         62.63831       36.41496      106.00482
H         64.11831       37.00276      104.12921
H         62.46226       37.22094      103.79507
H         63.42713       38.57190      104.09595
N         66.89054       39.68184      110.79386
C         66.54133       38.32272      111.20530
C         66.69952       37.35206      110.03939
O         65.71567       36.75272      109.62544
C         65.14462       38.22213      111.85645
C         64.90867       39.03087      113.09146
O         63.68960       38.90062      113.64447
O         65.75366       39.76689      113.57945
H         67.67516       40.11022      111.31060
H         67.25187       38.00315      111.99579
H         64.98673       37.16149      112.15138
H         64.33934       38.49251      111.15923
N         67.89582       37.11210      109.43520
C         69.16582       37.64707      109.91009
C         70.33849       37.21531      109.04021
O         70.12425       36.67729      107.96467
H         67.88705       36.46247      108.63525
H         69.32079       37.25798      110.93747
H         69.15025       38.75485      109.93665
N         71.63603       37.38023      109.43299
C         72.03419       37.83495      110.76008
C         72.11816       36.64569      111.70474
O         71.93495       35.51438      111.27017
C         73.33502       38.67613      110.71414
C         74.56176       37.92888      110.25160
O         74.64204       37.49781      109.11305
O         75.60834       37.78043      111.08573
H         72.35235       36.97639      108.81397
H         71.25261       38.51095      111.16810
H         73.53613       39.06562      111.73501
H         73.18147       39.55630      110.05303
N         72.34096       36.83146      113.03293
C         72.32259       35.74291      113.99513
C         70.94232       35.12088      114.07703
O         70.80356       33.91998      113.89897
H         72.50138       37.78637      113.38957
H         72.56744       36.15177      114.99993
H         73.09692       34.98775      113.73600
N         69.87255       35.91203      114.36430
C         68.49837       35.43629      114.53188
C         67.94457       34.80100      113.26220
O         68.09792       35.36547      112.19034
C         67.56788       36.61000      114.94333
C         67.94858       37.23665      116.29281
O         66.23019       36.18501      114.99752
H         70.06160       36.91781      114.48762
H         68.46637       34.68995      115.35685
H         67.63549       37.40165      114.16947
H         66.17152       35.46186      115.67621
H         67.88012       36.47941      117.10256
H         68.97555       37.65233      116.28253
H         67.24741       38.06674      116.52200
N         67.19492       33.66105      113.34631
C         66.54433       33.01463      112.20395
C         65.01405       33.02881      112.31827
O         64.37400       32.44828      111.45043
C         67.05812       31.55092      112.03813
C         66.70883       30.66090      113.26324
C         68.56643       31.54957      111.73477
C         66.98682       29.17495      113.03369
H         67.04825       33.24609      114.27790
H         66.78400       33.55487      111.26098
H         66.54515       31.12431      111.14654
H         65.62233       30.74430      113.47963
H         67.26711       30.99579      114.16250
H         68.77481       32.17916      110.84339
H         69.14388       31.94686      112.59552
H         68.92852       30.52854      111.50139
H         66.40765       28.80888      112.15906
H         68.06514       28.98044      112.87122
H         66.66948       28.60055      113.92969
N         64.35220       33.67685      113.32337
C         62.89758       33.65813      113.48024
C         62.33476       35.02087      113.11364
O         62.83138       36.02664      113.60102
C         62.52698       33.21375      114.91313
C         61.01364       32.99841      115.05700
O         62.97343       34.16388      115.84607
H         64.88914       34.22831      114.00498
H         62.45049       32.90542      112.79318
H         63.03410       32.23850      115.10143
H         62.88110       33.75223      116.74480
H         60.66771       32.22946      114.33271
H         60.77817       32.63607      116.08006
H         60.45725       33.94170      114.87637
N         61.31348       35.11912      112.21480
C         60.86162       36.37761      111.62559
C         59.42846       36.70489      112.02552
O         58.78316       35.89416      112.67833
C         60.99490       36.22491      110.08019
C         62.43629       35.90542      109.65838
O         60.53419       37.34930      109.38070
H         60.87142       34.25019      111.87380
H         61.49372       37.22187      111.98074
H         60.36092       35.36726      109.76337
H         61.13560       38.10047      109.60465
H         62.48457       35.77289      108.55816
H         63.10933       36.73394      109.95700
H         62.79582       34.96673      110.12992
N         58.87225       37.90108      111.65836
C         57.48396       38.27331      111.91957
C         57.33259       39.54656      112.75158
O         56.22923       39.78802      113.22036
C         56.72816       38.42851      110.57562
C         57.26404       39.58555      109.69334
C         56.46131       39.78524      108.39438
C         56.52309       38.61356      107.39352
N         57.86167       38.41897      106.83275
H         59.45841       38.56575      111.13929
H         56.98995       37.45690      112.49151
H         55.65239       38.61382      110.78872
H         56.80829       37.46746      110.02615
H         58.33197       39.43841      109.44500
H         57.18460       40.53296      110.26868
H         56.82942       40.70250      107.88397
H         55.39936       39.96030      108.67120
H         55.82757       38.84334      106.55616
H         56.16948       37.67522      107.86687
H         57.84146       37.60982      106.17181
H         58.13926       39.26403      106.28911
H         58.56562       38.22115      107.57743
N         58.34988       40.44769      112.90600
C         58.20268       41.71302      113.61899
C         58.25365       42.85664      112.62374
O         59.21638       42.95996      111.87531
C         59.32391       41.89647      114.66154
C         59.29439       40.84322      115.77569
C         60.28995       41.18300      116.86204
O         60.12319       42.19093      117.52755
O         61.36765       40.41805      117.12444
H         59.25443       40.27915      112.44824
H         57.22907       41.76408      114.15581
H         59.19220       42.90098      115.12143
H         60.31758       41.86623      114.16125
H         59.49022       39.83850      115.34362
H         58.28523       40.82687      116.24669
N         57.24663       43.77405      112.57619
C         57.25825       44.88544      111.64931
H         56.36516       45.52611      111.81414
H         58.16824       45.50368      111.80451
H         57.23788       44.50800      110.60534
H         56.45166       43.69672      113.22854
Ca        62.71656       39.76577      115.45960
O         63.87329       37.40091      116.63893
H         63.85341       36.75128      115.89377
H         63.71364       36.85524      117.44829
O         63.98384       42.77149      114.42596
H         63.46442       43.53578      114.78198
H         63.92355       42.86702      113.44231
O         64.34469       42.46105      117.60386
H         65.19322       42.86164      117.92032
H         63.75570       43.23693      117.42586

Ca 1.0



