%chk=apoCaM-CA-Ng.loop1.water4.frame968.chk
%nprocshared=20
%mem=10GB
%nosave
#b3lyp/svp scf=(tight,noincore,xqc) Test 
#IOP(5/87=12) Density=Current Pop=(MK,readradii) iop(6/33=2) iop(6/42=6)

apoCaM-CA-Ng.loop1.water4.frame968 

   0  1 
C         65.29711       40.58097       25.42583
C         64.72128       39.19730       25.37582
O         63.52092       39.04086       25.20876
H         66.06011       40.69338       24.62526
H         64.50826       41.34702       25.28073
H         65.78613       40.74202       26.40989
N         65.55501       38.13483       25.49441
C         65.13785       36.74154       25.43759
C         65.53894       36.01925       26.75208
O         66.83558       36.34171       27.18252
C         65.62351       36.10346       24.10197
C         66.93984       36.60794       23.55338
O         68.09135       36.44581       24.21957
O         66.95879       37.18938       22.47908
H         66.56409       38.32588       25.60321
H         64.03020       36.64168       25.41206
H         64.86698       36.38814       23.33600
H         65.60465       34.99467       24.15573
N         65.29854       34.56712       26.68471
C         65.65401       33.80342       27.89860
C         65.92131       32.36232       27.51931
O         65.45763       31.92429       26.47492
C         64.63678       33.93845       29.06391
C         63.20968       33.41741       28.77922
C         62.33890       33.52308       30.04643
C         60.89689       33.04460       29.81116
N         60.11290       33.12321       31.04649
H         64.32007       34.36150       26.37949
H         66.62932       34.18493       28.26556
H         64.57130       35.00842       29.35662
H         65.04429       33.37392       29.93156
H         63.25080       32.35222       28.46345
H         62.74239       34.01442       27.96780
H         62.31007       34.58073       30.38858
H         62.79476       32.90219       30.84870
H         60.90246       31.99159       29.45242
H         60.41726       33.67853       29.03250
H         60.52806       32.49933       31.77659
H         60.08830       34.10734       31.40022
H         59.13337       32.80972       30.85657
N         66.74431       31.58879       28.28839
C         67.15968       30.24288       27.88359
C         68.00818       29.53506       28.94588
O         68.48182       30.18525       29.86717
C         67.97424       30.30335       26.55260
C         69.18175       31.19943       26.65879
O         69.04818       32.38141       26.91792
O         70.41681       30.70845       26.45018
H         67.10363       31.99424       29.16543
H         66.22539       29.65678       27.76091
H         67.34529       30.67600       25.72119
H         68.31960       29.29540       26.25015
N         68.26010       28.18939       28.90510
C         67.68649       27.26216       27.93901
C         66.82683       26.25460       28.65135
O         65.94896       26.65204       29.40515
H         68.86371       27.78463       29.63805
H         68.50031       26.76545       27.36810
H         67.03319       27.75869       27.20399
N         66.99023       24.92293       28.42450
C         66.19688       23.90639       29.10525
C         66.62101       23.83872       30.55410
O         65.78748       23.99469       31.43551
C         66.37565       22.52572       28.44083
C         65.89450       22.49441       27.01078
O         65.37983       23.59145       26.41858
O         65.96441       21.45373       26.37797
H         67.68809       24.62467       27.72533
H         65.11327       24.15776       29.03398
H         65.78339       21.77741       29.01242
H         67.44379       22.22199       28.46512
N         67.93176       23.62859       30.86641
C         68.43679       23.56082       32.22534
C         68.33476       24.86303       32.99586
O         68.76549       24.87126       34.14009
H         68.61124       23.49492       30.10171
H         69.51746       23.29666       32.18375
H         67.90798       22.75366       32.77396
N         67.82167       26.00852       32.45537
C         67.87739       27.28834       33.15081
C         69.24497       27.90424       32.88913
O         70.00541       27.35027       32.10405
C         66.72124       28.21291       32.67286
C         65.34923       27.55553       32.87303
O         66.74333       29.42182       33.38617
H         67.51993       26.02249       31.47397
H         67.75835       27.12156       34.24514
H         66.86619       28.41590       31.58594
H         66.22328       30.08279       32.85822
H         65.17960       27.32999       33.94711
H         64.54930       28.24273       32.52302
H         65.26711       26.61696       32.28775
N         69.63955       29.05156       33.50819
C         70.92489       29.67728       33.20255
C         72.11598       28.86732       33.71056
O         73.23524       29.28619       33.43682
C         70.99140       31.15589       33.69056
C         71.05123       31.27771       35.23456
C         69.83527       31.96983       33.07109
C         71.21483       32.72180       35.71354
H         68.99609       29.50961       34.16537
H         71.00800       29.73296       32.09295
H         71.93693       31.58485       33.28716
H         71.93697       30.71483       35.60106
H         70.14602       30.84109       35.70468
H         69.95474       33.05250       33.27228
H         69.82947       31.84727       31.96692
H         68.84983       31.64871       33.46668
H         70.31822       33.32690       35.46966
H         71.33995       32.73555       36.81606
H         72.11128       33.18554       35.24841
N         71.97975       27.70988       34.42963
C         73.12042       26.92960       34.89933
C         73.02152       26.70009       36.40108
O         71.98549       26.98399       36.99378
C         73.17356       25.59871       34.08856
C         74.51307       24.85651       34.14529
O         72.15440       24.72033       34.49284
H         71.04043       27.33999       34.63714
H         74.05680       27.49197       34.69397
H         73.05360       25.85623       33.00971
H         71.31582       25.03282       34.07113
H         74.72500       24.43273       35.14328
H         74.48779       23.99826       33.44066
H         75.33814       25.53275       33.83233
N         74.06678       26.16413       37.07750
C         74.02924       25.77291       38.47644
C         75.08923       26.52760       39.26104
O         74.75880       27.13177       40.27025
C         74.20607       24.22834       38.55921
C         74.19053       23.69734       39.99716
O         75.39640       23.82814       37.92964
H         74.94012       25.99290       36.56198
H         73.03708       25.99702       38.93278
H         73.33758       23.78228       38.01704
H         75.25730       22.90390       37.59433
H         73.24268       23.97329       40.50430
H         74.27392       22.58891       39.98649
H         75.04670       24.09992       40.57677
N         76.39783       26.47805       38.87977
C         77.49390       26.90712       39.73716
C         78.63997       27.48236       38.92295
O         79.06976       26.85492       37.96518
C         77.96167       25.68345       40.56214
C         78.45901       24.51001       39.69724
C         78.67864       23.23747       40.50825
C         79.10450       22.10030       39.56812
N         79.24211       20.84085       40.29252
H         76.63720       25.93923       38.03841
H         77.14855       27.65919       40.48139
H         77.08789       25.34250       41.15980
H         78.75992       25.98451       41.27533
H         79.40531       24.78582       39.18791
H         77.70000       24.26292       38.93297
H         77.72222       22.95938       41.00384
H         79.45456       23.40675       41.28567
H         80.07194       22.36116       39.08320
H         78.33897       21.97141       38.76888
H         79.53337       20.09476       39.62041
H         79.96694       20.93345       41.03985
H         78.32359       20.57375       40.71596
N         79.25008       28.63855       39.30682
C         80.46919       29.11152       38.66275
C         80.24293       29.48535       37.19935
O         80.93732       28.92122       36.36545
C         81.14345       30.22845       39.49114
C         82.53131       30.58665       38.93459
C         83.22220       31.59132       39.80970
O         83.55643       32.67429       39.35715
O         83.49547       31.29365       41.09489
H         78.89811       29.13588       40.13913
H         81.20101       28.27035       38.69487
H         81.27678       29.84338       40.52706
H         80.51882       31.13655       39.55622
H         82.42812       30.99381       37.90539
H         83.16509       29.67398       38.89013
N         79.31862       30.39013       36.76203
C         78.36768       31.08447       37.60264
H         77.70873       30.35715       38.11902
H         78.87562       31.73721       38.33243
H         77.72449       31.73543       36.97291
H         79.26427       30.57328       35.74763
Ca        68.39250       34.92059       26.33446
O         69.24350       34.82024       29.20702
H         68.70954       35.42471       29.78120
H         70.13435       34.78801       29.63716
O         71.93932       34.04757       27.19961
H         71.74963       33.47833       27.98734
H         72.90749       34.24521       27.26421
O         69.99337       33.83884       23.59982
H         69.88252       32.95716       24.03619
H         69.08127       34.08336       23.30260
O         71.68550       36.44638       24.70204
H         71.98068       37.31121       24.32054
H         72.33546       35.78628       24.35207

Ca 1.0



