%chk=apoCaM-CA-Ng.loop2.water3.frame623.chk
%nprocshared=20
%mem=10GB
%nosave
#b3lyp/svp scf=(tight,noincore,xqc) Test 
#IOP(5/87=12) Density=Current Pop=(MK,readradii) iop(6/33=2) iop(6/42=6)

apoCaM-CA-Ng.loop2.water3.frame623 

   -2  1 
C         70.63517       35.19012       -7.23959
C         70.40893       36.65682       -7.01179
O         69.30978       37.12832       -7.26571
H         71.66900       34.89019       -6.96724
H         69.92307       34.60326       -6.62242
H         70.46997       34.95091       -8.31127
N         71.41318       37.45045       -6.54293
C         71.24645       38.88136       -6.31630
C         70.21835       39.12242       -5.22481
O         70.41457       38.66349       -4.10914
C         72.59622       39.52229       -5.93319
C         72.48010       41.01173       -5.75715
O         72.11402       41.71531       -6.68544
O         72.78540       41.57679       -4.57371
H         72.33449       37.02166       -6.36218
H         70.91721       39.34842       -7.27182
H         73.33661       39.32439       -6.73878
H         72.97695       39.06458       -4.99369
N         69.10163       39.85978       -5.47880
C         68.07241       40.11554       -4.47185
C         67.33101       38.83186       -4.11935
O         67.41330       37.88854       -4.89408
C         67.06667       41.12760       -5.05077
H         68.99491       40.26964       -6.42017
H         68.56196       40.54806       -3.57290
H         67.59357       42.06703       -5.31934
H         66.59568       40.71284       -5.96912
H         66.25236       41.38765       -4.35289
N         66.51855       38.70172       -3.02708
C         66.36731       39.66943       -1.94238
C         67.56965       39.66164       -1.00389
O         68.48171       38.86456       -1.17955
C         65.04545       39.39836       -1.17203
C         64.95839       38.07838       -0.44447
O         63.82861       37.77024        0.22005
O         65.88733       37.28719       -0.44185
H         65.96775       37.83675       -2.96405
H         66.25454       40.68291       -2.36070
H         64.20888       39.44478       -1.90292
H         64.87372       40.20379       -0.42849
N         67.60906       40.52925        0.04635
C         68.67821       40.58290        1.03226
C         69.99679       41.05450        0.45198
O         70.08340       41.24115       -0.75346
H         66.82178       41.18147        0.17811
H         68.79548       39.59503        1.52705
H         68.37252       41.32231        1.79880
N         71.08106       41.33761        1.23443
C         71.12807       41.24209        2.69390
C         72.30977       40.39991        3.18690
O         72.47383       40.29563        4.39510
C         71.25484       42.67436        3.26306
C         70.05384       43.52400        2.91958
N         70.17690       44.62045        2.13527
O         68.95612       43.22010        3.36200
H         71.91570       41.72047        0.76157
H         70.20504       40.78391        3.10524
H         72.18189       43.13812        2.85882
H         71.34214       42.65071        4.37104
H         71.09058       44.89656        1.74796
H         69.35049       45.19300        1.90592
N         73.19660       39.80402        2.33381
C         74.41387       39.13752        2.78059
C         74.23322       37.83301        3.53578
O         75.25102       37.27450        3.92217
H         73.07247       39.89427        1.31687
H         74.99404       39.84676        3.41125
H         75.03304       38.90290        1.88790
N         73.01538       37.27119        3.78512
C         72.84917       36.01080        4.51435
C         72.14345       34.97946        3.64408
O         71.83152       35.27500        2.49798
C         72.08430       36.27183        5.83540
C         72.88047       37.19424        6.76512
O         70.82644       36.83393        5.56026
H         72.16207       37.74680        3.45719
H         73.83311       35.56781        4.78573
H         71.96109       35.30594        6.37516
H         70.22211       36.57043        6.30273
H         73.04135       38.18939        6.30147
H         72.33214       37.33150        7.72075
H         73.86919       36.74021        6.99494
N         71.84651       33.74105        4.13667
C         71.14794       32.71081        3.37587
C         69.73495       32.66300        3.91426
O         69.54734       32.35996        5.08539
C         71.92250       31.35672        3.47187
C         71.30463       30.18336        2.66336
C         73.36555       31.55843        2.96449
C         69.95429       29.66046        3.15591
H         72.08091       33.52280        5.11676
H         71.10100       32.99695        2.30177
H         71.98645       31.04826        4.53931
H         71.99951       29.31695        2.73528
H         71.22549       30.46877        1.59810
H         73.36571       31.86246        1.89504
H         73.89645       32.33406        3.55466
H         73.94908       30.61790        3.06466
H         69.14286       30.39405        3.02080
H         69.67205       28.76711        2.55917
H         70.02225       29.36393        4.22398
N         68.69358       33.02797        3.11156
C         67.31795       33.16936        3.56747
C         66.33292       32.26065        2.83315
O         65.18539       32.24846        3.25818
C         66.92140       34.66668        3.49398
C         67.14458       35.23725        2.11996
O         68.02136       36.06883        1.94102
O         66.46622       34.75523        1.06566
H         68.89699       33.29816        2.14328
H         67.24379       32.87007        4.63589
H         67.57827       35.21646        4.20555
H         65.87017       34.82406        3.81410
N         66.66535       31.45026        1.77410
C         65.71273       30.45919        1.26684
C         66.05252       29.98463       -0.15209
O         66.46324       28.84466       -0.31742
C         65.66040       29.27039        2.26630
C         64.45129       28.38898        2.04911
C         64.52039       27.20672        1.28981
C         63.22680       28.75247        2.63671
C         63.37895       26.41741        1.10949
C         62.09411       27.95226        2.46830
C         62.16822       26.78824        1.70060
H         67.61514       31.47219        1.37747
H         64.69890       30.91534        1.22058
H         65.60266       29.63913        3.31280
H         66.60675       28.68676        2.22091
H         65.44766       26.89450        0.82967
H         63.15391       29.65153        3.23649
H         63.43302       25.51530        0.51378
H         61.15911       28.23570        2.93398
H         61.28809       26.17266        1.56680
N         65.85000       30.77131       -1.25314
C         66.01702       30.28965       -2.61779
C         67.46540       30.11276       -3.03550
O         67.67737       29.63611       -4.14276
C         65.26234       31.31966       -3.45842
C         65.47999       32.58570       -2.66488
C         65.29873       32.10537       -1.22692
H         65.51105       29.30708       -2.75275
H         65.53545       31.35866       -4.53548
H         64.17362       31.09358       -3.38659
H         66.54490       32.87898       -2.80706
H         64.81342       33.42374       -2.94838
H         65.83260       32.78200       -0.53347
H         64.22427       32.03505       -0.94826
N         68.51438       30.41687       -2.21651
C         69.88121       30.04230       -2.56241
C         69.94539       28.52866       -2.56892
O         70.27707       27.94579       -3.59157
C         70.92837       30.59093       -1.56673
C         71.14343       32.11436       -1.63897
C         69.95550       32.88396       -1.17142
O         69.32800       33.77323       -1.96235
O         69.54757       32.70947       -0.03854
H         68.33277       30.85306       -1.30408
H         70.14714       30.44110       -3.56751
H         71.91003       30.13479       -1.82149
H         70.67262       30.28108       -0.53450
H         71.41569       32.41198       -2.67343
H         71.98921       32.37966       -0.96689
N         69.59298       27.82635       -1.45523
C         69.57109       26.38198       -1.42596
H         68.85836       26.00224       -2.18906
H         70.58575       25.98063       -1.62740
H         69.23564       26.03092       -0.42648
H         69.30396       28.33211       -0.60371
Ca        67.59976       34.71947       -0.87519
O         70.64644       36.09581       -0.13003
H         71.21455       36.78040       -0.56440
H         71.22415       35.29348       -0.08037
O         69.13156       36.29132       -3.18569
H         69.90767       36.59823       -2.65542
H         69.52827       35.90328       -4.00542
O         66.33899       35.44052       -3.44211
H         65.55133       35.59403       -2.86073
H         65.97018       35.40696       -4.35923

Ca 1.0



