%chk=apoCaM-CA-Ng.loop2.water5.frame480.chk
%nprocshared=20
%mem=10GB
%nosave
#b3lyp/svp scf=(tight,noincore,xqc) Test 
#IOP(5/87=12) Density=Current Pop=(MK,readradii) iop(6/33=2) iop(6/42=6)

apoCaM-CA-Ng.loop2.water5.frame480 

   -2  1 
C         51.67024       71.67266       76.41440
C         53.09544       71.90578       75.99247
O         53.99642       71.64425       76.77634
H         50.95723       71.94407       75.60695
H         51.52611       70.59979       76.66076
H         51.43050       72.28272       77.30906
N         53.37639       72.37803       74.74702
C         54.73504       72.58625       74.25738
C         55.42303       73.71407       75.01488
O         54.91334       74.82618       75.01701
C         54.69445       72.91198       72.74627
C         56.05320       72.99090       72.09395
O         57.18497       72.77777       72.79375
O         56.12915       73.23287       70.90048
H         52.58706       72.55579       74.10585
H         55.29641       71.63143       74.36828
H         54.15603       73.87207       72.58674
H         54.12937       72.10719       72.22686
N         56.62507       73.50876       75.62658
C         57.37837       74.58431       76.26458
C         56.66276       75.09093       77.49964
O         56.44738       74.31656       78.42273
C         58.78558       74.10582       76.63838
H         57.04765       72.56894       75.57374
H         57.50968       75.40758       75.52688
H         58.74191       73.26555       77.36338
H         59.31792       73.76171       75.72525
H         59.36745       74.94103       77.08434
N         56.26019       76.39233       77.58249
C         55.53669       76.91825       78.73837
C         56.40629       76.97810       79.99774
O         55.87091       77.31391       81.04622
C         55.02742       78.35491       78.47025
C         54.27711       78.54242       77.17229
O         53.11098       77.92952       76.87494
O         54.74381       79.30887       76.34440
H         56.43868       77.01141       76.77728
H         54.65598       76.26561       78.91683
H         55.91730       79.02571       78.43644
H         54.38854       78.69482       79.31160
N         57.75788       76.75686       79.97099
C         58.60576       76.98912       81.12989
C         58.36526       76.05445       82.29423
O         58.92629       76.32289       83.34773
H         58.23110       76.51747       79.08897
H         58.43689       78.03467       81.47020
H         59.67736       76.90422       80.84384
N         57.59638       74.92695       82.19755
C         57.37499       74.05551       83.35620
C         56.86674       72.66771       82.92666
O         56.52953       72.47411       81.76718
C         56.38432       74.78224       84.31523
C         56.32052       74.33300       85.75721
N         55.40070       74.88534       86.58188
O         57.11210       73.52238       86.20773
H         57.21103       74.67381       81.27805
H         58.36761       73.89973       83.83557
H         55.37279       74.72912       83.85662
H         56.65086       75.85790       84.38350
H         54.73460       75.58908       86.23047
H         55.35219       74.60939       87.57390
N         56.84850       71.63118       83.81209
C         56.45480       70.26894       83.48850
C         55.33724       69.79525       84.38869
O         54.75383       70.59569       85.10799
H         57.18737       71.77631       84.76612
H         57.34123       69.62392       83.66888
H         56.15041       70.14580       82.42710
N         55.01847       68.46844       84.43345
C         53.98673       67.94543       85.33099
C         52.57912       68.33228       84.88153
O         51.65060       68.16617       85.66004
C         54.10830       66.41074       85.53085
C         53.84447       65.58325       84.26224
O         55.35982       66.08462       86.08620
H         55.57976       67.82133       83.86153
H         54.16602       68.39942       86.33222
H         53.33983       66.10563       86.27451
H         56.04935       66.17212       85.37797
H         52.82326       65.77448       83.88386
H         54.57193       65.81739       83.45880
H         53.92399       64.50216       84.50275
N         52.34890       68.83767       83.63586
C         51.06052       69.33485       83.16394
C         51.23347       70.79118       82.75662
O         52.35654       71.27890       82.81130
C         50.46522       68.46087       82.01217
C         51.30322       68.35247       80.70265
C         50.04690       67.07539       82.52969
C         52.50441       67.39029       80.69837
H         53.14219       68.93700       82.99587
H         50.31995       69.32677       83.99461
H         49.51972       68.96532       81.71610
H         51.62550       69.36518       80.38012
H         50.62093       67.96125       79.91595
H         49.33746       67.17859       83.37818
H         49.54036       66.49861       81.72659
H         50.92172       66.49971       82.88450
H         52.18315       66.35378       80.92941
H         52.94884       67.37957       79.68112
H         53.31558       67.66657       81.38595
N         50.17594       71.56682       82.36419
C         50.35629       72.97505       82.02167
C         49.59130       73.84877       83.00035
O         48.82764       74.70844       82.59365
C         49.98672       73.21340       80.54121
C         50.49776       74.53379       80.01699
O         50.33889       74.84326       78.72118
O         51.13306       75.29251       80.73150
H         49.22673       71.16437       82.32864
H         51.42634       73.24681       82.13534
H         48.88825       73.11506       80.39288
H         50.48498       72.42971       79.92953
N         49.76565       73.65506       84.33651
C         49.11008       74.42749       85.39170
C         47.59511       74.41396       85.22130
O         47.03059       73.33036       85.15719
C         49.54840       73.83855       86.75745
C         48.94520       74.48712       87.98277
C         49.74288       75.27453       88.83135
C         47.59768       74.26694       88.32516
C         49.19981       75.83807       89.99019
C         47.06132       74.82620       89.48738
C         47.86092       75.61243       90.31891
H         50.40342       72.89391       84.61812
H         49.48743       75.46767       85.35135
H         50.65580       73.94390       86.79723
H         49.32653       72.74951       86.80478
H         50.78529       75.45266       88.59846
H         46.96271       73.64360       87.71214
H         49.81980       76.44379       90.63795
H         46.02711       74.64085       89.74769
H         47.44463       76.04052       91.22134
N         46.85323       75.57019       85.16406
C         45.40279       75.58365       85.05744
C         44.93574       75.31635       83.63510
O         43.76823       74.99908       83.45591
C         45.03537       76.99867       85.52280
C         46.19124       77.81754       84.98370
C         47.38584       76.91557       85.29552
H         44.93790       74.84694       85.74997
H         44.01955       77.34771       85.23693
H         45.11689       77.03277       86.63355
H         46.06603       77.87698       83.87947
H         46.28139       78.85320       85.37486
H         48.19975       77.14147       84.57312
H         47.74083       77.04899       86.34112
N         45.77316       75.47483       82.56928
C         45.36087       75.23518       81.19165
C         45.15795       73.75133       80.91073
O         44.65798       73.43421       79.84014
C         46.41262       75.79098       80.20376
C         46.59639       77.31134       80.34633
C         47.64433       77.81344       79.39960
O         47.35691       78.63460       78.54408
O         48.91349       77.37603       79.50491
H         46.72213       75.82351       82.74049
H         44.40273       75.77428       81.01518
H         46.08825       75.58040       79.16025
H         47.38251       75.27476       80.37601
H         46.91699       77.58295       81.37272
H         45.62683       77.81501       80.13915
N         45.54915       72.78591       81.79539
C         45.39083       71.36664       81.55183
H         44.88828       71.15306       80.58551
H         46.39083       70.88372       81.54187
H         44.78513       70.92077       82.36802
H         46.00645       73.04564       82.67922
Ca        51.65254       76.44522       77.78748
O         51.60073       75.76561       74.76448
H         51.35852       74.87155       75.11395
H         52.50246       75.93792       75.13382
O         53.14921       74.10352       78.16744
H         53.62790       73.61122       78.87893
H         53.85423       74.40576       77.54295
O         48.64557       76.28815       76.40408
H         48.11456       77.11437       76.27908
H         48.01269       75.64572       76.81311
O         52.09420       78.03745       80.49638
H         52.00997       77.65253       81.40436
H         52.16978       79.01231       80.64833
O         50.55973       79.45589       77.42842
H         51.37545       79.81960       77.85546
H         49.84401       79.62004       78.09121

Ca 1.0



