%chk=apoCaM-CA-Ng.loop1.water3.frame1153.chk
%nprocshared=20
%mem=10GB
%nosave
#b3lyp/svp scf=(tight,noincore,xqc) Test 
#IOP(5/87=12) Density=Current Pop=(MK,readradii) iop(6/33=2) iop(6/42=6)

apoCaM-CA-Ng.loop1.water3.frame1153 

   0  1 
C         72.34376       35.50297      116.84583
C         73.68989       35.07434      116.34936
O         74.48793       35.92766      115.98908
H         71.54922       35.02968      116.23125
H         72.22641       35.19264      117.90414
H         72.23465       36.60687      116.77838
N         73.99465       33.74795      116.26482
C         75.27261       33.25597      115.76166
C         75.10400       32.75659      114.34191
O         75.43272       31.61683      114.04175
C         75.88887       32.21333      116.73239
C         75.09014       30.94250      116.93769
O         75.56889       29.99423      117.76477
O         74.03003       30.74804      116.36346
H         73.26114       33.06946      116.51544
H         75.99327       34.09222      115.69106
H         76.02986       32.69457      117.72359
H         76.89130       31.92248      116.34894
N         74.57698       33.59193      113.39988
C         74.34540       33.16616      112.03061
C         75.66359       32.89365      111.31518
O         75.81670       31.77647      110.84003
C         73.43590       34.15153      111.26276
C         72.78425       33.45363      110.05805
C         71.84237       34.39275      109.30107
C         71.06091       33.62242      108.22768
N         70.20678       34.52208      107.45500
H         74.27979       34.53716      113.68232
H         73.75363       32.22419      112.09990
H         73.97486       35.06674      110.94903
H         72.60237       34.45472      111.93502
H         72.19081       32.59257      110.44180
H         73.55921       33.06681      109.36161
H         72.44274       35.20371      108.83503
H         71.11179       34.84624      110.00692
H         70.42783       32.85039      108.72246
H         71.76602       33.10653      107.53943
H         69.65912       33.96211      106.76235
H         69.54203       35.02461      108.08707
H         70.79761       35.21430      106.93975
N         76.70791       33.78010      111.23115
C         76.77534       35.12368      111.82015
C         77.46636       35.06731      113.17223
O         77.89528       33.99618      113.57140
C         77.36524       36.13704      110.80333
C         78.62531       35.69204      110.09145
O         79.81054       35.53645      110.71097
O         78.57388       35.47528      108.89088
H         77.57590       33.42011      110.80510
H         75.76734       35.48878      112.07849
H         77.51806       37.13496      111.26640
H         76.59036       36.26191      110.01431
N         77.50059       36.16988      113.98660
C         77.91315       36.09186      115.38658
C         79.14178       36.89447      115.70199
O         79.67286       37.56995      114.84483
H         77.14731       37.07208      113.63644
H         78.14736       35.04600      115.67024
H         77.07812       36.43743      116.03100
N         79.68298       36.80474      116.94826
C         80.96162       37.41053      117.31555
C         80.76945       38.37351      118.47746
O         79.67990       38.40049      119.03135
C         81.91660       36.25727      117.69128
C         82.09809       35.31004      116.53878
O         82.57975       35.70547      115.48957
O         81.72355       34.02186      116.65816
H         79.20072       36.22346      117.65107
H         81.37844       37.98146      116.46066
H         81.49012       35.69927      118.55528
H         82.91399       36.61734      117.98552
N         81.73873       39.22384      118.93424
C         83.06785       39.44148      118.38079
C         83.03126       40.07169      117.00699
O         82.30276       41.03545      116.81582
H         81.49755       39.80610      119.75235
H         83.69712       38.53360      118.41514
H         83.57853       40.18037      119.03524
N         83.87374       39.64135      116.02609
C         83.95622       40.28277      114.71549
C         82.71164       39.99969      113.89758
O         82.32776       38.84564      113.77391
C         85.20262       39.81915      113.92305
C         86.50441       40.23662      114.62297
O         85.17331       40.42119      112.65333
H         84.52493       38.87118      116.24479
H         84.08096       41.38183      114.84684
H         85.16930       38.71075      113.81558
H         85.79569       39.90860      112.07885
H         87.37733       39.90964      114.01842
H         86.54829       41.34338      114.72264
H         86.58987       39.78173      115.62990
N         82.09411       41.01854      113.23084
C         80.95862       40.86031      112.32899
C         81.29608       39.88463      111.21018
O         80.97033       38.71021      111.32883
C         79.64981       40.46066      113.07397
C         79.33353       41.36511      114.29153
C         78.44608       40.39909      112.10855
C         79.10992       42.84252      113.96145
H         82.48310       41.96932      113.32295
H         80.75922       41.84956      111.86138
H         79.78926       39.44709      113.47603
H         80.16460       41.29308      115.02451
H         78.42055       40.97580      114.79402
H         77.53275       40.07835      112.65281
H         78.25906       41.38372      111.63349
H         78.61599       39.66297      111.29618
H         78.25300       42.97493      113.27056
H         78.88005       43.39231      114.89807
H         80.02048       43.29095      113.51510
N         81.89673       40.31603      110.06452
C         82.07829       39.44448      108.90539
C         83.54502       39.23962      108.53347
O         83.80395       38.40117      107.68136
C         81.23745       40.02985      107.73864
C         81.07052       39.08295      106.54861
O         81.79673       41.23893      107.28749
H         82.16542       41.30924      109.99072
H         81.67474       38.43463      109.13682
H         80.19934       40.20265      108.11466
H         81.39541       41.97144      107.82372
H         82.03686       38.86528      106.05430
H         80.59977       38.13304      106.88083
H         80.40395       39.55573      105.79524
N         84.56161       39.96313      109.09356
C         85.94883       39.78537      108.66832
C         86.47931       38.44297      109.16060
O         86.60535       38.24568      110.35909
C         86.82951       40.97235      109.13038
C         88.27513       40.83021      108.64724
O         86.31510       42.16773      108.59612
H         84.34331       40.69970      109.77812
H         85.96458       39.81723      107.55463
H         86.85552       41.02765      110.24308
H         85.69587       42.55534      109.26765
H         88.30897       40.75892      107.53838
H         88.86533       41.71599      108.96364
H         88.74803       39.92832      109.08488
N         86.78100       37.46605      108.26056
C         87.23645       36.11417      108.57200
C         86.24607       35.37246      109.45226
O         86.26206       35.55526      110.66201
C         88.66016       36.03732      109.16626
C         89.71282       36.72617      108.28334
C         91.15468       36.31180      108.63093
C         91.57111       36.57263      110.08653
N         92.95399       36.14337      110.30595
H         86.63509       37.67407      107.26086
H         87.28749       35.57633      107.59813
H         88.91212       34.95595      109.24420
H         88.69450       36.47812      110.18633
H         89.58937       37.82713      108.35431
H         89.55450       36.42903      107.22416
H         91.84313       36.86127      107.95231
H         91.26461       35.22464      108.42417
H         90.91162       36.00112      110.77523
H         91.47619       37.65531      110.32049
H         93.05425       35.12428      110.08916
H         93.60356       36.69425      109.69891
H         93.21114       36.29848      111.30727
N         85.33994       34.52029      108.89595
C         84.39336       33.73548      109.68284
C         82.99479       34.34270      109.64250
O         82.53099       34.69881      110.71627
C         84.41303       32.24275      109.28849
C         85.79360       31.60713      109.50059
C         85.77514       30.15883      109.10120
O         84.94721       29.29529      109.72042
O         86.51119       29.75699      108.21412
H         85.32358       34.44712      107.87158
H         84.69771       33.76162      110.75384
H         84.12137       32.10055      108.23176
H         83.67250       31.70210      109.91894
H         86.08217       31.68122      110.57126
H         86.55198       32.14650      108.89180
N         82.22195       34.52624      108.52893
C         82.54683       34.19775      107.15821
H         83.53401       33.74683      107.02090
H         81.79178       33.48309      106.77010
H         82.50767       35.12382      106.54745
H         81.29417       34.95404      108.66366
Ca        80.42474       36.04243      112.80307
O         81.02115       33.21060      113.65087
H         80.34922       33.36601      112.94102
H         80.48880       32.94890      114.44321
O         84.12276       34.08958      113.47992
H         84.25294       33.83130      114.42665
H         83.81160       33.25993      113.03864
O         83.79874       37.06597      111.86223
H         84.53437       36.72651      112.43120
H         84.12682       37.93467      111.52019

Ca 1.0



