%chk=apoCaM-CA-Ng.loop1.water3.frame1050.chk
%nprocshared=20
%mem=10GB
%nosave
#b3lyp/svp scf=(tight,noincore,xqc) Test 
#IOP(5/87=12) Density=Current Pop=(MK,readradii) iop(6/33=2) iop(6/42=6)

apoCaM-CA-Ng.loop1.water3.frame1050 

   0  1 
C          9.93905       80.63430       51.01680
C          9.71372       79.92593       52.31703
O          9.99441       80.51820       53.34822
H          9.36949       81.58788       51.01731
H         11.02039       80.86296       50.90392
H          9.60903       80.01912       50.15554
N          9.24480       78.64225       52.35236
C          9.02151       77.92168       53.60135
C         10.11128       76.88264       53.80323
O          9.82349       75.72561       54.07707
C          7.60976       77.29539       53.62066
C          6.52409       78.32184       53.47034
O          5.75228       78.26374       52.52600
O          6.38181       79.29690       54.38776
H          9.07869       78.14515       51.46412
H          9.11033       78.61508       54.46500
H          7.44893       76.75895       54.58092
H          7.53377       76.55487       52.79247
N         11.41660       77.25663       53.69845
C         12.53322       76.37126       54.01031
C         12.57381       76.08584       55.50954
O         12.47879       74.91505       55.85377
C         13.86363       76.91780       53.40835
C         14.12223       76.33470       51.99978
C         12.99140       76.54855       50.97426
C         13.19513       75.62132       49.76450
N         12.06770       75.70071       48.83670
H         11.62249       78.22074       53.39783
H         12.36980       75.38051       53.52842
H         14.71803       76.56388       54.02493
H         13.90654       78.02711       53.39397
H         14.24597       75.23963       52.14924
H         15.08152       76.72257       51.59150
H         12.93398       77.61626       50.66936
H         12.01831       76.25906       51.41534
H         13.26649       74.57095       50.13060
H         14.14179       75.87015       49.23755
H         12.00599       76.65849       48.42420
H         12.20820       75.00208       48.07110
H         11.17574       75.46884       49.33314
N         12.64363       77.03520       56.48823
C         12.73906       78.46956       56.26908
C         11.40727       79.15239       56.56348
O         10.45212       78.49241       56.94426
C         13.92197       79.04469       57.07404
C         13.68218       79.07219       58.55542
O         12.61571       79.74775       59.01311
O         14.48035       78.57717       59.33519
H         12.58802       76.71045       57.46409
H         12.95283       78.68086       55.21467
H         14.08310       80.09862       56.76536
H         14.85318       78.48373       56.83634
N         11.27182       80.49189       56.34551
C         10.01162       81.20748       56.46386
C          9.44877       81.31885       57.86225
O         10.04627       80.83673       58.81581
H         12.08471       81.01843       55.99609
H          9.25537       80.72289       55.81253
H         10.16729       82.24460       56.09586
N          8.28780       82.01213       58.03577
C          7.62307       82.27708       59.31638
C          6.50947       83.32386       59.15105
O          5.98156       83.46195       58.05166
C          6.96791       81.00357       59.91518
C          7.93914       79.99289       60.43400
O          8.79934       80.32830       61.41555
O          7.92298       78.85190       60.00366
H          7.89245       82.43479       57.17968
H          8.38355       82.69519       60.00310
H          6.29525       80.54862       59.15492
H          6.33430       81.26592       60.78293
N          6.03521       84.08105       60.18570
C          6.58614       84.08025       61.53527
C          7.96909       84.68275       61.57606
O          8.43476       85.21744       60.58066
H          5.23504       84.70720       60.00870
H          6.60050       83.05300       61.93951
H          5.94143       84.68789       62.20557
N          8.69819       84.60976       62.72665
C         10.05248       85.15067       62.82524
C         10.95972       84.46114       61.82173
O         10.69270       83.31543       61.48446
C         10.64374       84.96061       64.24768
C          9.79730       85.61619       65.34263
O         11.92706       85.52776       64.30547
H          8.27424       84.13415       63.53478
H         10.00697       86.23864       62.59689
H         10.69586       83.87234       64.49006
H         12.56579       84.84587       63.97146
H         10.28389       85.45421       66.32859
H          9.70757       86.70737       65.16164
H          8.78192       85.17597       65.40228
N         12.05749       85.10189       61.31182
C         12.99329       84.49919       60.36091
C         13.83374       83.37692       61.02602
O         13.19047       82.70812       62.06977
C         12.28486       84.06982       59.03697
C         11.70915       85.33957       58.35207
C         13.26732       83.33605       58.10123
C         10.83107       85.05645       57.13516
H         12.23560       86.07595       61.60002
H         13.73049       85.27465       60.04932
H         11.46019       83.36294       59.25240
H         12.54565       86.00931       58.04986
H         11.07304       85.89462       59.07382
H         14.13327       83.98336       57.84807
H         13.64451       82.40880       58.58148
H         12.76996       83.01797       57.16550
H         10.45878       86.02011       56.72674
H         11.39236       84.54579       56.32856
H          9.95804       84.44048       57.43556
N         15.17015       83.83588       61.40479
C         16.02928       82.81037       62.02671
C         15.96701       82.78627       63.55622
O         16.24723       81.73935       64.12403
C         17.47811       82.96219       61.50912
C         18.07993       84.33581       61.82827
O         17.49885       82.78873       60.11486
H         15.19953       84.79592       61.80699
H         15.69035       81.80416       61.68310
H         18.12889       82.19140       61.98470
H         17.41389       81.81417       59.94267
H         17.49555       85.14557       61.34105
H         18.10437       84.51464       62.92269
H         19.11843       84.38812       61.43845
N         15.66860       83.89454       64.29530
C         15.61523       83.89793       65.75258
C         14.45649       83.05541       66.24621
O         13.33533       83.26320       65.80735
C         15.47572       85.33954       66.30830
C         16.71241       86.18857       65.98862
O         14.32514       85.95672       65.79161
H         15.49608       84.78692       63.82329
H         16.57106       83.50063       66.16217
H         15.39802       85.26443       67.41873
H         14.09071       86.69794       66.40885
H         17.61960       85.71669       66.42289
H         16.85688       86.30240       64.89459
H         16.59881       87.19904       66.43427
N         14.65454       82.12858       67.22541
C         13.58973       81.35021       67.84812
C         12.98842       80.39100       66.83763
O         11.79534       80.45948       66.57569
C         12.51758       82.26605       68.50986
C         13.13887       83.37587       69.37698
C         12.09223       84.25405       70.08577
C         11.27588       83.53069       71.17268
N         12.13041       82.98966       72.23242
H         15.60768       81.99915       67.59759
H         14.04517       80.74222       68.66186
H         11.85192       81.61688       69.11677
H         11.88928       82.76305       67.73952
H         13.72026       84.04815       68.71277
H         13.84882       82.95010       70.11325
H         11.39600       84.68240       69.33050
H         12.62423       85.10321       70.56730
H         10.66144       82.71679       70.73321
H         10.57512       84.27068       71.61946
H         12.74542       83.74077       72.62242
H         11.52856       82.61357       72.99928
H         12.71420       82.20359       71.86828
N         13.77984       79.46085       66.22529
C         13.29007       78.56239       65.18093
C         14.06556       78.75114       63.87964
O         13.42420       79.15392       62.92285
C         13.22984       77.08678       65.62772
C         12.25775       76.89807       66.80139
C         12.11086       75.44589       67.15212
O         11.67556       74.65540       66.32932
O         12.44143       75.01094       68.38250
H         14.76610       79.41305       66.51174
H         12.23396       78.82018       64.94317
H         14.21592       76.67928       65.91270
H         12.85453       76.49146       64.76525
H         11.25463       77.29337       66.52915
H         12.63027       77.45856       67.68581
N         15.39607       78.49663       63.68362
C         16.35531       78.00350       64.64956
H         17.19284       78.72671       64.73167
H         15.94863       77.85253       65.65621
H         16.75995       77.03295       64.29212
H         15.77316       78.66264       62.73682
Ca        12.58982       80.86694       60.93133
O         10.96949       77.47867       60.15313
H         10.25015       78.02414       59.75220
H         11.43517       77.09052       59.37354
O         10.38197       78.17012       63.00524
H         10.64191       77.23229       63.18655
H          9.39217       78.15938       63.01081
O         11.14753       81.32795       63.67106
H         10.62165       80.71417       64.24132
H         12.02967       81.39449       64.11575

Ca 1.0



