%chk=apoCaM-CA-Ng.loop2.water4.frame289.chk
%nprocshared=20
%mem=10GB
%nosave
#b3lyp/svp scf=(tight,noincore,xqc) Test 
#IOP(5/87=12) Density=Current Pop=(MK,readradii) iop(6/33=2) iop(6/42=6)

apoCaM-CA-Ng.loop2.water4.frame289 

   -2  1 
C         43.75506       62.66765       38.59365
C         44.34495       63.71118       39.49506
O         44.45801       63.46912       40.68540
H         42.85161       63.07236       38.09241
H         44.50154       62.37417       37.82621
H         43.46736       61.76312       39.17268
N         44.77775       64.89573       38.98100
C         45.38307       65.94750       39.79626
C         44.33955       66.59989       40.69057
O         43.37684       67.14923       40.17267
C         46.02540       67.02651       38.90317
C         47.06525       66.43742       37.98897
O         46.94230       66.53475       36.77832
O         48.13268       65.79403       38.49946
H         44.70901       65.02873       37.96005
H         46.19950       65.49892       40.40699
H         46.51364       67.79181       39.54496
H         45.24016       67.52777       38.29474
N         44.46217       66.56083       42.04743
C         43.47919       67.12749       42.96992
C         42.71699       66.02675       43.69734
O         41.91515       66.33418       44.56793
C         44.19734       68.04610       43.96391
H         45.26761       66.05974       42.45523
H         42.72267       67.73655       42.42885
H         44.72176       68.85949       43.41905
H         43.46685       68.51097       44.66076
H         44.94138       67.47335       44.55866
N         42.89528       64.71779       43.35885
C         42.23681       63.57329       43.96355
C         42.66733       63.43849       45.41089
O         41.84954       63.20065       46.28827
C         40.71033       63.64660       43.74309
C         40.01885       62.33146       43.94548
O         39.14398       62.20392       44.78621
O         40.29989       61.32226       43.10294
H         43.55402       64.48260       42.61262
H         42.62888       62.67966       43.42329
H         40.51571       63.92941       42.68527
H         40.26995       64.43057       44.39355
N         43.98109       63.61465       45.72034
C         44.52748       63.47636       47.05250
C         44.51971       62.03711       47.48613
O         44.25209       61.77287       48.65022
H         44.64440       63.87155       44.97278
H         44.00616       64.14024       47.77810
H         45.59230       63.79304       47.01901
N         44.84787       61.05117       46.59941
C         44.95695       59.64284       46.96005
C         46.40904       59.21690       46.75593
O         47.17883       59.98723       46.19093
C         43.88047       58.85404       46.16664
C         43.58464       57.44508       46.64116
N         44.44274       56.42355       46.43553
O         42.51646       57.21712       47.18960
H         45.04437       61.30904       45.61823
H         44.73024       59.52849       48.04188
H         44.08839       58.86417       45.07458
H         42.93673       59.42384       46.31576
H         45.33038       56.57307       45.95024
H         44.21028       55.47019       46.75035
N         46.88765       58.05782       47.28090
C         48.29872       57.70488       47.29009
C         48.58735       56.41870       46.55260
O         47.92253       55.42026       46.79576
H         46.24643       57.43639       47.79235
H         48.59430       57.57235       48.35093
H         48.93564       58.52015       46.88169
N         49.64495       56.35531       45.69273
C         50.06252       55.13241       45.01067
C         49.02096       54.69165       43.99767
O         48.62540       53.53596       44.03000
C         51.48275       55.25417       44.38608
C         51.64797       56.30105       43.27564
O         52.44023       55.46277       45.39705
H         50.21300       57.20659       45.57026
H         50.17458       54.32319       45.76926
H         51.72066       54.26890       43.92726
H         52.33914       56.38898       45.73771
H         52.69343       56.27066       42.90076
H         50.98171       56.07815       42.42350
H         51.44032       57.32534       43.64471
N         48.47733       55.58625       43.12208
C         47.38620       55.24484       42.20787
C         46.09036       55.78712       42.75961
O         46.11615       56.47797       43.76336
C         47.64222       55.76335       40.76319
C         47.83897       57.30421       40.72466
C         48.82071       55.01053       40.13082
C         47.75396       57.88785       39.31532
H         48.76422       56.57228       43.19760
H         47.24197       54.14282       42.17292
H         46.74334       55.51742       40.15824
H         48.81379       57.58234       41.17954
H         47.03243       57.79837       41.30805
H         48.62014       53.91782       40.14889
H         48.96152       55.30254       39.07163
H         49.75945       55.20559       40.68439
H         46.75428       57.67296       38.87971
H         47.88092       58.99015       39.36736
H         48.54131       57.48026       38.65224
N         44.90445       55.49345       42.15271
C         43.62280       55.90372       42.70102
C         42.74733       54.66333       42.85951
O         41.59926       54.65817       42.44454
C         43.05218       56.98009       41.76538
C         41.84147       57.68570       42.28229
O         41.30090       57.37842       43.47879
O         41.36092       58.58245       41.61040
H         44.90036       54.94076       41.28300
H         43.76619       56.35612       43.70543
H         42.83469       56.53257       40.77103
H         43.83136       57.76286       41.63126
N         43.29450       53.53281       43.39205
C         42.61842       52.23946       43.51119
C         42.02437       51.80238       42.16708
O         42.78331       51.66446       41.21994
C         43.67124       51.19937       43.97535
C         43.17893       49.77927       44.09983
C         42.62135       49.31787       45.30251
C         43.33733       48.88267       43.02698
C         42.22864       47.98028       45.42788
C         42.93588       47.55063       43.15338
C         42.38488       47.09829       44.35423
H         44.28261       53.58587       43.68529
H         41.82987       52.31950       44.28464
H         44.12500       51.51132       44.94190
H         44.51155       51.20579       43.24450
H         42.50906       49.98688       46.14623
H         43.77611       49.21296       42.09354
H         41.81110       47.62410       46.36043
H         43.06147       46.86742       42.32293
H         42.08522       46.06300       44.45389
N         40.68547       51.53933       42.00330
C         40.11062       51.02375       40.76517
C         40.02322       52.06884       39.66324
O         40.00419       51.67970       38.50249
C         38.73004       50.51869       41.20385
C         38.35986       51.49371       42.29987
C         39.68442       51.64214       43.04738
H         40.68179       50.14757       40.38463
H         37.98545       50.39231       40.38818
H         38.86647       49.53182       41.70321
H         38.11431       52.46243       41.81151
H         37.50025       51.20012       42.93918
H         39.68689       52.62480       43.56650
H         39.84948       50.81423       43.77267
N         39.94868       53.40294       39.93273
C         39.87411       54.42501       38.88917
C         41.14213       54.50435       38.04115
O         41.12463       55.23516       37.05981
C         39.61000       55.80827       39.52213
C         38.19158       55.92079       40.10774
C         38.05569       57.21036       40.86088
O         38.74850       57.37607       42.00392
O         37.33768       58.10487       40.44412
H         39.91686       53.70071       40.91697
H         39.02991       54.17900       38.20591
H         39.70538       56.61088       38.75624
H         40.38352       55.98849       40.29998
H         37.96044       55.08958       40.80532
H         37.46851       55.88433       39.26245
N         42.27687       53.80871       38.33836
C         43.45982       53.89252       37.50824
H         44.26862       53.26133       37.93353
H         43.22920       53.53103       36.48302
H         43.81699       54.94321       37.45829
H         42.32445       53.21176       39.17279
Ca        39.14011       59.39475       42.93868
O         37.80572       61.47576       41.20085
H         37.86678       60.82601       40.45646
H         38.41124       62.21291       40.93613
O         37.95349       57.45253       45.15154
H         37.33379       57.85590       45.81010
H         38.22808       56.59403       45.56076
O         36.49263       59.98293       44.00299
H         36.01627       60.84574       44.09193
H         35.79806       59.33864       43.71550
O         40.21533       59.44556       45.94855
H         40.39391       58.50294       46.19215
H         40.55931       59.97057       46.71420

Ca 1.0



