%chk=apoCaM-CA-Ng.loop4.water3.frame237.chk
%nprocshared=20
%mem=10GB
%nosave
#b3lyp/svp scf=(tight,noincore,xqc) Test 
#IOP(5/87=12) Density=Current Pop=(MK,readradii) iop(6/33=2) iop(6/42=6)

apoCaM-CA-Ng.loop4.water3.frame237 

   -3  1 
C         15.12303       24.77581       74.10647
C         13.97590       25.43427       73.39867
O         12.96167       25.68118       74.02437
H         16.01470       25.43691       74.05425
H         14.87985       24.59869       75.17623
H         15.35898       23.80570       73.62294
N         14.09262       25.75768       72.08122
C         13.11483       26.48125       71.26384
C         12.94048       27.96988       71.70081
O         11.91795       28.12955       72.64177
C         11.82027       25.66390       70.98051
C         10.96873       25.25072       72.15916
O         10.31283       26.15968       72.90308
O         10.82913       24.06565       72.41823
H         14.97831       25.50572       71.61452
H         13.58746       26.58353       70.26074
H         12.14619       24.73093       70.46903
H         11.17923       26.22541       70.26826
N         14.23621       28.54492       72.14201
C         14.46444       30.01866       72.19360
C         13.48930       30.86265       71.38843
O         13.92467       31.47482       70.42162
C         14.62054       30.51068       73.66287
C         14.87810       32.03607       73.80176
C         15.73145       29.71144       74.37725
C         16.16589       32.54898       73.15150
H         14.97997       28.15404       71.51537
H         15.46412       30.19617       71.72887
H         13.66713       30.33796       74.19226
H         14.91241       32.28833       74.88447
H         14.02213       32.59482       73.36810
H         16.71244       29.84558       73.87647
H         15.82466       30.03488       75.43580
H         15.50855       28.62461       74.36672
H         17.06145       32.07081       73.59684
H         16.15735       32.37425       72.05696
H         16.24698       33.64264       73.32468
N         12.17706       30.98810       71.73488
C         11.26862       31.84451       70.98801
C         11.55854       33.32217       71.28977
O         12.00311       33.99563       70.37093
C          9.80793       31.38184       71.17122
C          8.84386       32.25627       70.42118
O          7.86292       32.89827       71.08334
O          8.94048       32.38528       69.21096
H         11.81645       30.47417       72.54832
H         11.46300       31.67519       69.90248
H          9.52246       31.32844       72.23470
H          9.71820       30.34202       70.78745
N         11.37955       33.93194       72.50412
C         10.79866       33.28762       73.67276
C         10.69658       34.18871       74.89768
O         11.12782       35.33078       74.82734
H         11.65565       34.92360       72.56766
H         11.40903       32.40214       73.93076
H          9.77526       33.02575       73.40437
N         10.15786       33.78013       76.09333
C          9.58125       32.47597       76.41990
C         10.59140       31.35208       76.22519
O         10.38863       30.52976       75.34202
C          8.23600       32.24015       75.67582
C          7.46416       31.04397       76.18099
O          6.38940       30.76716       75.67308
O          7.93071       30.27967       77.18799
H         10.16522       34.46639       76.86514
H          9.29366       32.49433       77.49448
H          8.38207       32.08791       74.59594
H          7.58930       33.13203       75.81999
N         11.68816       31.18109       77.01945
C         12.03901       31.97032       78.19069
C         12.74049       33.25555       77.84842
O         12.91409       33.56169       76.67800
H         12.27341       30.35923       76.82796
H         12.77066       31.38683       78.78954
H         11.15113       32.13687       78.83617
N         13.23141       34.04020       78.85080
C         13.92625       35.29511       78.60107
C         15.38652       35.14987       78.99091
O         15.90359       35.97546       79.73103
C         13.23689       36.44022       79.38130
C         11.74015       36.57992       79.05411
C         11.06392       37.66285       79.86536
N          9.73514       37.87471       79.72774
O         11.70185       38.34460       80.65572
H         13.12494       33.72728       79.82886
H         13.90817       35.54145       77.51724
H         13.75221       37.40080       79.15663
H         13.33417       36.23250       80.47114
H         11.22640       35.62222       79.28483
H         11.61365       36.80176       77.97291
H          9.17729       37.30525       79.07486
H          9.26071       38.60340       80.28186
N         16.12889       34.10939       78.50874
C         17.55291       33.96346       78.81513
C         17.82475       33.79212       80.30974
O         18.98163       33.91026       80.68839
C         18.23186       32.80848       78.01852
C         18.05803       32.97582       76.49953
C         17.72573       31.43019       78.45760
H         15.66571       33.43426       77.88489
H         18.03933       34.91297       78.49519
H         19.32456       32.84210       78.22646
H         18.46004       33.95669       76.17126
H         18.61223       32.17568       75.96382
H         16.99464       32.90621       76.19384
H         16.64078       31.36470       78.28700
H         18.23451       30.62538       77.88591
H         17.92658       31.25525       79.53574
N         16.83127       33.51571       81.21275
C         17.06812       33.46011       82.65051
C         16.70481       32.10980       83.25179
O         17.55656       31.51813       83.90153
C         16.25056       34.55843       83.36694
C         16.51394       35.94785       82.84105
N         17.75668       36.48260       82.85625
O         15.58122       36.60632       82.40534
H         15.86483       33.37842       80.88686
H         18.13936       33.65367       82.87891
H         16.49884       34.54135       84.45031
H         15.16486       34.34695       83.25825
H         18.55868       35.95340       83.22566
H         17.91711       37.43414       82.49287
N         15.43378       31.61264       83.16628
C         14.95182       30.50849       83.99725
C         14.37897       29.35938       83.18609
O         13.59515       29.60716       82.28054
C         13.81925       31.03574       84.90545
C         14.19239       32.29647       85.65065
C         15.26122       32.32067       86.56224
C         13.45882       33.47416       85.42369
C         15.59015       33.50704       87.22924
C         13.78824       34.65496       86.08987
C         14.85347       34.67838       86.99323
O         15.15854       35.82958       87.62481
H         14.73949       32.11383       82.59117
H         15.75593       30.12796       84.66494
H         13.52635       30.24719       85.63257
H         12.93051       31.24883       84.27023
H         15.84075       31.42672       86.75425
H         12.63168       33.48261       84.72464
H         16.41757       33.51617       87.92723
H         13.21440       35.55318       85.89961
H         15.88819       35.89336       88.25680
N         14.62739       28.06436       83.55826
C         13.95790       26.88415       82.99714
C         14.32115       26.59199       81.55366
O         13.79546       25.63195       81.00561
C         12.42439       26.97174       83.17294
C         12.03075       27.09322       84.65004
C         10.54174       27.20241       84.79202
O          9.91873       26.35805       85.41510
O          9.88691       28.24243       84.24052
H         15.26660       27.89871       84.35073
H         14.29743       25.99079       83.56869
H         11.95550       26.04675       82.76904
H         12.01504       27.82605       82.59661
H         12.48987       27.99666       85.10196
H         12.40033       26.19780       85.19804
N         15.26835       27.30954       80.89776
C         15.73856       26.96794       79.56748
C         16.96816       26.11013       79.72501
O         16.97861       24.99595       79.21976
C         16.01106       28.25535       78.77665
C         14.73148       29.08874       78.62226
C         13.74521       28.41553       77.73347
O         14.10990       28.20766       76.46292
O         12.60806       28.17768       78.10602
H         15.77473       28.05339       81.39681
H         14.97969       26.37247       79.00865
H         16.42786       28.01380       77.77271
H         16.76578       28.86350       79.31762
H         14.96987       30.04476       78.12209
H         14.28722       29.32819       79.61039
N         18.01449       26.53848       80.48477
C         19.17043       25.72049       80.78051
H         20.08783       26.24201       80.44286
H         19.22491       25.56310       81.87908
H         19.12125       24.72442       80.29288
H         17.97771       27.47302       80.91768
Ca        12.69647       28.20756       74.75304
O          8.54811       28.21996       74.35650
H          8.17739       29.04825       73.96053
H          7.87014       27.52554       74.16016
O         11.26338       25.36919       76.47970
H         11.70245       25.40949       77.36626
H         11.32804       24.41794       76.21265
O          9.52345       27.65150       77.49869
H          9.83960       27.60786       78.43591
H          9.98895       28.43723       77.11714

Ca 1.0



