%chk=apoCaM-CA-Ng.loop4.water1.frame92.chk
%nprocshared=20
%mem=10GB
%nosave
#b3lyp/svp scf=(tight,noincore,xqc) Test 
#IOP(5/87=12) Density=Current Pop=(MK,readradii) iop(6/33=2) iop(6/42=6)

apoCaM-CA-Ng.loop4.water1.frame92 

   -3  1 
C         25.61186       41.46255       12.60458
C         24.17675       41.17285       12.91563
O         23.64067       41.81907       13.79042
H         26.22523       40.55536       12.77031
H         25.70063       41.79342       11.54867
H         25.99173       42.28039       13.25765
N         23.48061       40.24189       12.20456
C         22.05228       39.96501       12.35697
C         21.19953       41.20016       12.13825
O         20.39867       41.54988       12.98620
C         21.67763       39.06604       13.57392
C         22.15947       39.30351       14.99613
O         21.87516       40.39053       15.74681
O         22.77002       38.39644       15.54029
H         23.97719       39.75161       11.44531
H         21.75564       39.31789       11.49902
H         22.06308       38.05498       13.30679
H         20.57009       38.96833       13.59510
N         21.27207       41.83902       10.93358
C         20.45147       42.96537       10.48974
C         18.97537       42.57394       10.48753
O         18.49423       42.15672        9.44309
C         20.78956       44.29016       11.23354
C         19.98029       45.50242       10.69697
C         22.30225       44.57946       11.17706
C         20.17990       45.81454        9.20805
H         21.93789       41.46274       10.24016
H         20.73773       43.12231        9.42568
H         20.53972       44.17897       12.30762
H         20.27105       46.40135       11.28021
H         18.89649       45.33171       10.86982
H         22.66238       44.67127       10.13195
H         22.53579       45.51828       11.72311
H         22.87279       43.76128       11.66425
H         19.59276       46.71796        8.93997
H         21.24384       46.01609        8.97662
H         19.82257       44.98273        8.56885
N         18.20695       42.64584       11.61604
C         16.86490       42.08459       11.71708
C         15.76555       43.15569       11.78457
O         14.91644       43.10370       10.90498
C         16.84537       41.05453       12.86858
C         15.53485       40.32530       12.98400
O         14.40794       40.99312       13.29560
O         15.49145       39.11597       12.82213
H         18.61376       43.04970       12.46513
H         16.64857       41.49129       10.79850
H         17.08210       41.52339       13.84069
H         17.64913       40.30958       12.66863
N         15.63684       44.14642       12.72253
C         16.56425       44.42199       13.80921
C         16.17067       45.63643       14.65523
O         15.15081       46.24774       14.37063
H         14.81483       44.75907       12.61341
H         17.53344       44.66241       13.34904
H         16.62309       43.53869       14.45830
N         16.92311       46.10834       15.70201
C         18.14959       45.52990       16.24490
C         19.19647       45.38373       15.15245
O         19.47713       44.25751       14.77413
C         17.84665       44.22642       17.02968
C         19.00628       43.80458       17.89916
O         20.08038       43.50110       17.40809
O         18.85827       43.76226       19.23749
H         16.59388       46.97107       16.16373
H         18.54109       46.21391       17.03086
H         17.56604       43.38620       16.37044
H         16.98903       44.42697       17.70846
N         19.81927       46.44408       14.55566
C         19.68153       47.83365       14.95225
C         19.25521       48.71811       13.81077
O         19.02277       48.24599       12.70631
H         20.49050       46.24949       13.79802
H         20.67221       48.18963       15.30836
H         18.95782       47.96554       15.77740
N         19.11315       50.05213       14.03972
C         18.64623       50.99523       13.02957
C         19.66305       51.20918       11.90689
O         19.30516       51.81187       10.90613
C         18.32626       52.33896       13.72931
C         17.57836       53.35503       12.85432
C         17.25051       54.59658       13.64247
N         18.23539       55.38502       14.13407
O         16.08205       54.89854       13.83320
H         19.28994       50.39236       14.99900
H         17.70229       50.58160       12.60958
H         19.27297       52.77755       14.11749
H         17.66746       52.11971       14.59948
H         16.63629       52.88250       12.49796
H         18.17871       53.65910       11.97499
H         19.22634       55.15361       13.97615
H         18.00718       56.23552       14.66942
N         20.96131       50.80374       12.02761
C         21.99562       51.11180       11.04090
C         23.03062       52.06929       11.61705
O         23.98202       52.37124       10.90606
C         22.64778       49.82081       10.47293
C         21.63284       49.02797        9.64413
C         23.27212       48.92514       11.55288
H         21.26113       50.32236       12.88595
H         21.56816       51.65478       10.16887
H         23.45787       50.12414        9.77158
H         20.78878       48.67961       10.27459
H         21.22984       49.66163        8.82453
H         22.13269       48.15446        9.17803
H         24.03127       49.48784       12.13491
H         22.49674       48.53473       12.24258
H         23.77463       48.05439       11.07939
N         22.88375       52.65504       12.84624
C         23.80318       53.67031       13.35054
C         24.41176       53.31768       14.70634
O         25.33822       54.00743       15.10542
C         23.04315       55.01030       13.47338
C         22.35837       55.40492       12.18411
N         23.06957       55.64758       11.05950
O         21.14069       55.50440       12.15784
H         22.04652       52.45207       13.41050
H         24.64812       53.80363       12.64025
H         23.73496       55.82313       13.78231
H         22.26574       54.90229       14.26401
H         24.09636       55.57500       11.05694
H         22.58795       55.91095       10.18639
N         23.89407       52.33853       15.51203
C         24.34972       52.10934       16.88220
C         24.44451       50.62374       17.19931
O         23.52005       49.89261       16.87571
C         23.31997       52.70739       17.86515
C         23.11147       54.19515       17.69781
C         21.83826       54.68960       17.36893
C         24.16886       55.10287       17.89001
C         21.62446       56.06342       17.23377
C         23.95248       56.47861       17.75255
C         22.67728       56.96281       17.42548
O         22.45042       58.28581       17.29748
H         23.05669       51.82550       15.21066
H         25.32135       52.61022       17.08563
H         23.66412       52.53049       18.90771
H         22.35141       52.17543       17.73629
H         21.00665       54.01230       17.22133
H         25.15852       54.74999       18.15125
H         20.63630       56.42846       16.98402
H         24.77427       57.16735       17.90511
H         23.14763       58.94387       17.42936
N         25.46329       50.14825       17.97948
C         25.49568       48.81016       18.58239
C         25.66494       47.65725       17.60415
O         25.69715       46.52838       18.07674
C         24.25560       48.57481       19.48757
C         24.20797       49.55096       20.67008
C         22.99621       49.29621       21.52122
O         22.17493       50.18116       21.70050
O         22.81197       48.09172       22.09613
H         26.20743       50.80318       18.26305
H         26.38951       48.75332       19.24354
H         24.30027       47.54743       19.91072
H         23.31624       48.64300       18.90144
H         24.18814       50.59796       20.30174
H         25.11681       49.41428       21.29537
N         25.83632       47.82946       16.26292
C         26.03894       46.70537       15.35002
C         27.43793       46.71359       14.75447
O         27.75123       45.79356       14.01042
C         24.96293       46.74052       14.24615
C         23.52425       46.67352       14.79222
C         23.15213       45.32160       15.33592
O         23.75231       44.81823       16.27101
O         22.11278       44.67491       14.78445
H         25.84858       48.77952       15.86499
H         25.96712       45.73742       15.88599
H         25.11230       45.90998       13.51982
H         25.07932       47.69851       13.69540
H         22.83680       46.88718       13.94793
H         23.35989       47.45502       15.56142
N         28.35220       47.68177       15.05331
C         29.70009       47.64594       14.53087
H         30.21491       46.72688       14.88462
H         29.68110       47.65917       13.42103
H         30.26870       48.52945       14.89138
H         28.11013       48.46450       15.67627
Ca        21.60517       42.51968       15.12867
O         24.25124       41.68808       16.92034
H         24.29150       40.72380       16.69990
H         25.01481       42.08345       16.43018

Ca 1.0



