%chk=apoCaM-CA-Ng.loop2.water4.frame1069.chk
%nprocshared=20
%mem=10GB
%nosave
#b3lyp/svp scf=(tight,noincore,xqc) Test 
#IOP(5/87=12) Density=Current Pop=(MK,readradii) iop(6/33=2) iop(6/42=6)

apoCaM-CA-Ng.loop2.water4.frame1069 

   -2  1 
C         18.61187       40.71129       33.75899
C         18.20192       42.07297       34.24193
O         17.91126       42.92037       33.40998
H         19.64522       40.48550       34.09396
H         17.90895       39.94803       34.15355
H         18.58643       40.66823       32.64879
N         18.12997       42.39483       35.56461
C         18.44541       41.50197       36.67360
C         19.59974       42.09477       37.47759
O         20.60892       42.39776       36.85610
C         17.14521       41.18205       37.45302
C         16.34214       42.39461       37.87381
O         15.20884       42.54412       37.44509
O         16.84593       43.31434       38.71684
H         17.82829       43.34618       35.80224
H         18.82536       40.52930       36.30063
H         17.36923       40.53881       38.32922
H         16.50065       40.58144       36.77293
N         19.55812       42.27808       38.83551
C         20.64967       42.85661       39.61258
C         20.93775       44.26398       39.13039
O         22.03585       44.54032       38.66534
C         21.88528       41.94199       39.59056
H         18.72610       42.00136       39.36922
H         20.33554       42.92543       40.67825
H         22.67893       42.36792       40.24146
H         21.61415       40.94026       39.98639
H         22.30034       41.82069       38.56994
N         19.96707       45.21612       39.22277
C         20.14065       46.57374       38.72320
C         18.98833       47.46860       39.16514
O         17.84228       47.16822       38.86603
C         20.28072       46.58390       37.16986
C         19.10440       46.02719       36.39999
O         19.10379       46.07855       35.18059
O         18.03998       45.50698       37.03595
H         19.07431       44.95977       39.67263
H         21.07668       46.99799       39.14863
H         21.18145       46.01650       36.85914
H         20.43086       47.63692       36.84871
N         19.20998       48.62812       39.84993
C         18.11290       49.55161       40.11084
C         17.51357       50.06806       38.80413
O         16.40565       50.58295       38.81474
H         20.16570       48.88926       40.13649
H         18.45910       50.41693       40.71620
H         17.33838       49.00970       40.69585
N         18.22641       49.98740       37.64392
C         17.76341       50.41149       36.32889
C         16.75628       49.43661       35.73630
O         17.05749       48.25262       35.68030
C         18.96881       50.40884       35.35211
C         20.07949       51.36581       35.70626
N         21.18717       51.40806       34.93120
O         19.99263       52.10077       36.67926
H         19.19509       49.64277       37.69753
H         17.36160       51.44879       36.36665
H         18.62347       50.67108       34.33747
H         19.39989       49.38416       35.30577
H         21.27166       50.79566       34.10592
H         21.95849       52.05495       35.15025
N         15.62733       49.88761       35.11378
C         14.86028       49.05016       34.19455
C         13.38031       48.98011       34.46970
O         12.93214       49.52397       35.46853
H         15.39823       50.89251       35.15134
H         15.25589       48.01344       34.15214
H         14.98064       49.51006       33.20410
N         12.52613       48.30801       33.63103
C         12.93029       47.61887       32.39503
C         13.42856       48.59830       31.33618
O         12.67164       49.45324       30.89657
C         11.76808       46.78161       31.79358
C         11.37646       45.60108       32.68966
O         10.64945       47.60040       31.56471
H         11.53286       48.26969       33.90826
H         13.74561       46.90488       32.63472
H         12.12640       46.35457       30.82630
H         10.05714       47.10974       30.93679
H         10.56138       45.01819       32.21122
H         12.24276       44.91865       32.81360
H         11.02799       45.94473       33.68528
N         14.71566       48.52320       30.88972
C         15.28094       49.43028       29.89532
C         14.85097       49.00815       28.48964
O         15.15769       47.87795       28.13263
C         16.84329       49.43170       29.98714
C         17.36259       49.86474       31.38934
C         17.47617       50.31753       28.89393
C         16.91223       51.26269       31.83836
H         15.33606       47.81976       31.31896
H         14.98370       50.45690       30.14080
H         17.21373       48.39692       29.80886
H         18.47421       49.83844       31.37942
H         17.03821       49.13237       32.15505
H         18.58356       50.30026       28.97528
H         17.22115       49.94019       27.88201
H         17.12276       51.36447       28.96814
H         17.34774       51.51447       32.81910
H         17.24762       52.03192       31.12950
H         15.81353       51.33028       31.95196
N         14.24067       49.82828       27.57598
C         13.77010       51.19481       27.80743
C         14.74841       52.23208       27.26281
O         15.74235       51.88288       26.64673
C         12.32514       51.38250       27.28148
C         12.17190       51.25628       25.78496
O         11.78781       52.21245       25.13094
O         12.39616       50.08383       25.16204
H         14.14625       49.45120       26.62378
H         13.70282       51.39436       28.88717
H         11.96956       52.39151       27.58239
H         11.65505       50.64435       27.77233
N         14.53203       53.55126       27.54192
C         15.50063       54.62271       27.29817
C         15.36831       55.63530       28.44065
O         14.25017       56.06365       28.68531
C         15.22787       55.31585       25.94782
C         16.26998       56.38327       25.67677
C         15.91831       57.74400       25.68862
C         17.61071       56.02744       25.43538
C         16.89228       58.72784       25.48394
C         18.58069       57.01408       25.23000
C         18.22235       58.36359       25.25800
H         13.69484       53.77539       28.09730
H         16.51815       54.18717       27.26873
H         14.20924       55.76024       25.98137
H         15.24603       54.57869       25.11592
H         14.89595       58.04534       25.87629
H         17.90856       54.98631       25.41966
H         16.61760       59.77428       25.50926
H         19.61194       56.73280       25.05735
H         18.97558       59.12671       25.10800
N         16.41940       56.05189       29.21522
C         17.82850       55.90147       28.93128
C         18.46300       54.87638       29.84544
O         18.11601       53.71776       29.68599
C         18.30247       57.35077       29.06503
C         17.39376       57.98936       30.12988
C         16.27362       56.96751       30.32378
H         18.05891       55.54879       27.91284
H         19.38957       57.56611       29.12569
H         17.97080       57.81705       28.11033
H         17.89024       58.17476       31.10242
H         17.01106       58.95501       29.72923
H         16.52361       56.37881       31.23301
H         15.26362       57.40136       30.48371
N         19.42203       55.18315       30.76813
C         20.12160       54.16528       31.54409
C         21.63203       54.27023       31.31923
O         22.36651       54.47834       32.27381
C         19.70300       54.20550       33.03929
C         19.94296       55.50452       33.83443
C         19.02283       56.61911       33.43886
O         19.47743       57.68725       33.06287
O         17.68957       56.45949       33.54240
H         19.69881       56.16269       30.91045
H         19.83498       53.14434       31.20824
H         20.27134       53.39989       33.54468
H         18.62686       53.93653       33.12162
H         21.00057       55.82782       33.76063
H         19.73517       55.28946       34.90450
N         22.20846       54.10029       30.09359
C         21.47802       53.80646       28.87988
H         20.80801       54.64731       28.61706
H         22.18983       53.67460       28.03725
H         20.89874       52.86643       28.99736
H         23.23630       54.16273       30.02195
Ca        16.08022       45.12918       36.00138
O         13.42505       45.46854       35.06569
H         14.09285       45.36989       34.34139
H         13.12186       44.54267       35.23928
O         15.27904       45.67950       40.17645
H         14.47716       45.72241       40.75570
H         15.97202       46.18003       40.67568
O         12.98186       44.84594       38.12102
H         12.20406       44.56692       37.57573
H         12.82831       44.42337       39.00293
O         14.20081       48.09680       38.13885
H         15.11331       48.09146       38.52249
H         13.60320       47.98399       38.92037

Ca 1.0



