%chk=apoCaM-CA-Ng.loop4.water4.frame137.chk
%nprocshared=20
%mem=10GB
%nosave
#b3lyp/svp scf=(tight,noincore,xqc) Test 
#IOP(5/87=12) Density=Current Pop=(MK,readradii) iop(6/33=2) iop(6/42=6)

apoCaM-CA-Ng.loop4.water4.frame137 

   -3  1 
C         50.32991       47.50210       14.95152
C         51.11361       46.36420       15.52551
O         51.13700       45.30691       14.91529
H         49.55463       47.83197       15.67115
H         51.02050       48.34315       14.73085
H         49.83887       47.19528       14.00166
N         51.82830       46.52723       16.67846
C         52.70974       45.50511       17.23286
C         53.77111       45.13863       16.21928
O         53.83740       44.00340       15.79929
C         51.95191       44.33868       17.93958
C         50.67756       43.76826       17.34639
O         50.61397       43.04271       16.21043
O         49.63818       43.92854       17.96789
H         51.81186       47.44915       17.14007
H         53.29974       45.95383       18.06534
H         51.63151       44.77299       18.91500
H         52.66306       43.52313       18.19428
N         54.64572       46.11087       15.81361
C         55.76198       46.01770       14.86392
C         56.89577       45.12936       15.39892
O         57.94503       45.65949       15.73581
C         55.30001       45.68387       13.41038
C         56.41511       45.94929       12.35527
C         54.03054       46.46722       13.02063
C         56.86467       47.41305       12.21639
H         54.50553       47.04689       16.22644
H         56.16965       47.04916       14.82953
H         55.02953       44.60658       13.36232
H         56.04065       45.61774       11.36185
H         57.31503       45.35419       12.59182
H         54.17792       47.56266       13.10973
H         53.72553       46.22159       11.98130
H         53.18776       46.18855       13.67686
H         56.02289       48.07382       11.92552
H         57.32536       47.79462       13.14854
H         57.63588       47.48463       11.42214
N         56.73870       43.78579       15.55889
C         57.68928       42.91537       16.24326
C         58.90787       42.53636       15.41100
O         59.99349       42.54909       15.97300
C         56.98422       41.62901       16.74245
C         55.91865       41.90568       17.77808
O         55.64136       43.16187       18.18260
O         55.31438       40.97283       18.28132
H         55.86610       43.35251       15.25395
H         58.04351       43.41009       17.17686
H         57.73812       40.96888       17.22469
H         56.53076       41.07218       15.89735
N         58.85480       42.10358       14.11813
C         57.67630       42.19959       13.27840
C         57.93311       41.64030       11.89860
O         58.94055       42.01629       11.31508
H         59.73172       41.75845       13.69576
H         57.44863       43.26876       13.15028
H         56.81228       41.74868       13.76341
N         57.07688       40.80568       11.23490
C         55.77769       40.32394       11.67846
C         54.84731       41.50211       11.95656
O         54.44427       41.67623       13.09735
C         55.93466       39.29165       12.83124
C         54.66671       38.55042       13.17372
O         54.69908       37.59909       14.12596
O         53.61740       38.77911       12.59414
H         57.34599       40.53554       10.28459
H         55.32852       39.73658       10.84733
H         56.32062       39.73910       13.76117
H         56.67127       38.52739       12.50467
N         54.41162       42.35437       10.97678
C         54.67117       42.21221        9.54949
C         56.02293       42.72362        9.11574
O         56.75198       43.28352        9.92003
H         53.75262       43.09282       11.25246
H         53.92773       42.82058        8.98994
H         54.51791       41.15713        9.24519
N         56.39681       42.60531        7.80835
C         57.66688       43.10747        7.29549
C         57.52602       44.52000        6.74003
O         58.55114       45.08960        6.38919
C         58.23686       42.18611        6.18933
C         58.74909       40.80073        6.62301
C         57.70048       39.85755        7.14762
N         57.88677       39.21407        8.32278
O         56.70011       39.62950        6.48449
H         55.72062       42.20550        7.13938
H         58.40858       43.17937        8.12275
H         59.12676       42.68925        5.75087
H         57.48566       42.07606        5.37627
H         59.57098       40.92334        7.36215
H         59.18268       40.32304        5.71827
H         58.74299       39.36477        8.87773
H         57.18219       38.55040        8.67733
N         56.32503       45.16872        6.65528
C         56.21025       46.56131        6.22443
C         55.36850       46.74095        4.96739
O         55.21992       47.88734        4.56576
C         55.69610       47.45416        7.39064
C         56.70046       47.45898        8.55138
C         54.30269       47.05233        7.89758
H         55.46289       44.68328        6.93874
H         57.20808       46.96919        5.94846
H         55.63354       48.50203        7.02011
H         56.80960       46.44556        8.99217
H         57.69607       47.80192        8.19528
H         56.36231       48.16122        9.34168
H         54.31051       46.03611        8.34272
H         53.96886       47.76414        8.68280
H         53.56400       47.08202        7.06981
N         54.84176       45.69643        4.25304
C         54.12519       45.91141        2.99223
C         52.70958       45.35421        2.98896
O         52.02068       45.59817        2.00667
C         54.92119       45.30179        1.82184
C         56.34594       45.79968        1.77399
N         56.62497       47.11730        1.63566
O         57.26216       44.99612        1.86209
H         55.00663       44.72771        4.56166
H         54.02042       46.99988        2.79404
H         54.42366       45.55801        0.86001
H         54.92582       44.19394        1.92369
H         55.87196       47.81569        1.55935
H         57.60315       47.44208        1.60959
N         52.18490       44.62980        4.02342
C         50.80195       44.14417        4.01227
C         50.33975       43.60816        5.36759
O         51.14150       43.42319        6.27294
C         50.54724       43.12608        2.86064
C         51.50558       41.94945        2.79330
C         52.28186       41.74608        1.63446
C         51.61687       41.02676        3.84661
C         53.13853       40.64484        1.53354
C         52.47335       39.92638        3.74443
C         53.23505       39.72969        2.58510
O         54.05643       38.66639        2.46923
H         52.76669       44.45800        4.85429
H         50.14923       45.02968        3.84047
H         50.59805       43.67010        1.89563
H         49.50769       42.74156        2.92208
H         52.21926       42.43234        0.79883
H         51.04210       41.14454        4.74678
H         53.72222       40.49834        0.63278
H         52.53845       39.22381        4.56564
H         54.14341       38.00407        3.16981
N         49.00120       43.41319        5.57541
C         48.35900       42.99500        6.82438
C         48.50599       43.97622        7.98626
O         47.89281       43.70227        9.00940
C         48.82485       41.59910        7.29669
C         48.48553       40.47086        6.32015
C         48.92400       39.15488        6.90092
O         49.75663       38.47310        6.32576
O         48.40309       38.72504        8.06760
H         48.36432       43.59718        4.78439
H         47.26403       42.93475        6.62705
H         48.30165       41.36248        8.25046
H         49.91551       41.61046        7.50606
H         48.98153       40.64457        5.34655
H         47.38911       40.43537        6.14509
N         49.26653       45.11127        7.94486
C         49.45066       45.97015        9.11362
C         48.89814       47.36785        8.90566
O         48.97218       48.15523        9.84066
C         50.94909       46.04195        9.47982
C         51.60271       44.69347        9.82969
C         50.98297       44.03827       11.03470
O         51.67897       43.93849       12.18042
O         49.85606       43.57672       10.98140
H         49.75988       45.37863        7.08397
H         48.89710       45.57721        9.98976
H         51.08170       46.71155       10.35858
H         51.50492       46.48639        8.62614
H         52.66903       44.90817       10.05657
H         51.57758       43.99241        8.96826
N         48.30757       47.75929        7.74256
C         47.75586       49.08742        7.59008
H         46.95269       49.24808        8.34148
H         48.55227       49.84853        7.73361
H         47.32300       49.20519        6.57516
H         48.23019       47.11287        6.94517
Ca        52.09359       42.40978       14.63601
O         50.28849       39.92687       15.02560
H         49.75120       40.34437       15.74466
H         49.65117       39.34084       14.54571
O         48.61783       42.81998       14.08883
H         49.39815       42.91682       13.48855
H         48.32183       41.88465       13.95783
O         51.50307       40.88055       12.05490
H         51.08674       40.88748       11.15727
H         51.28705       39.98743       12.42186
O         53.23620       40.09075       15.97741
H         54.11942       39.69079       15.78305
H         53.44861       40.94993       16.42038

Ca 1.0



