%chk=apoCaM-CA-Ng.loop2.water4.frame125.chk
%nprocshared=20
%mem=10GB
%nosave
#b3lyp/svp scf=(tight,noincore,xqc) Test 
#IOP(5/87=12) Density=Current Pop=(MK,readradii) iop(6/33=2) iop(6/42=6)

apoCaM-CA-Ng.loop2.water4.frame125 

   -2  1 
C         43.18588       35.85633        5.46321
C         43.17904       34.61891        4.61688
O         43.70022       34.64399        3.51202
H         42.14011       36.15869        5.68458
H         43.71489       35.65234        6.41742
H         43.69506       36.69252        4.93863
N         42.57089       33.49277        5.07682
C         42.47826       32.25329        4.31528
C         41.04185       31.96806        3.89430
O         40.80795       30.89062        3.37553
C         43.10992       31.09375        5.11734
C         42.42873       30.81644        6.42982
O         43.11926       30.92781        7.58050
O         41.26001       30.46568        6.46037
H         42.11851       33.52540        6.00425
H         43.05950       32.32226        3.36899
H         44.17631       31.34462        5.30918
H         43.09267       30.16549        4.50497
N         40.05044       32.90221        4.04379
C         38.66125       32.78443        3.60365
C         38.52819       32.71575        2.08457
O         38.12509       33.70996        1.49968
C         37.91608       31.65746        4.32491
H         40.28387       33.80352        4.48365
H         38.16000       33.73200        3.91270
H         36.84558       31.66376        4.02788
H         38.34361       30.66223        4.09114
H         37.97641       31.81469        5.42297
N         38.80620       31.58100        1.38038
C         38.68422       31.46702       -0.07105
C         40.01512       31.11770       -0.73449
O         40.01962       30.86942       -1.93237
C         37.57449       30.44813       -0.41728
C         37.82638       29.02082        0.00475
O         38.97101       28.65029        0.61087
O         36.97499       28.17666       -0.22250
H         39.08087       30.73663        1.89023
H         38.35650       32.43252       -0.51617
H         37.41426       30.45436       -1.51757
H         36.63189       30.79528        0.06049
N         41.19159       31.13184       -0.03857
C         42.49105       30.84242       -0.62639
C         42.77213       31.74625       -1.79957
O         43.08298       31.25275       -2.87467
H         41.19271       31.40019        0.95300
H         42.53928       29.77774       -0.94218
H         43.27326       31.00907        0.14646
N         42.61028       33.08997       -1.67555
C         42.73189       34.00280       -2.80347
C         44.18694       34.29074       -3.10449
O         44.90585       34.75372       -2.23057
C         41.94696       35.29613       -2.52321
C         40.47726       34.98777       -2.34152
N         39.75111       34.44533       -3.34902
O         39.93998       35.21918       -1.27034
H         42.27507       33.45649       -0.77038
H         42.25665       33.54368       -3.69753
H         42.05448       36.00151       -3.37586
H         42.35186       35.78182       -1.60869
H         40.17588       34.24720       -4.26629
H         38.75484       34.22060       -3.21437
N         44.68005       34.04201       -4.34848
C         46.05698       34.27190       -4.74513
C         46.45294       35.72918       -4.66104
O         45.76184       36.56826       -5.22156
H         44.04630       33.65753       -5.06598
H         46.16285       33.96451       -5.80854
H         46.73758       33.63222       -4.14330
N         47.61565       36.08825       -4.04301
C         48.13402       37.45760       -4.06831
C         47.41822       38.39431       -3.08918
O         47.68070       39.58828       -3.14043
C         49.68001       37.47935       -3.87426
C         50.16768       36.99349       -2.49970
O         50.31296       36.75580       -4.90321
H         48.20093       35.33331       -3.65896
H         47.96859       37.85705       -5.09473
H         50.02050       38.53311       -3.97330
H         50.19115       35.78655       -4.72765
H         49.75717       37.63521       -1.70305
H         49.88070       35.94050       -2.30260
H         51.27521       37.06231       -2.45225
N         46.52252       37.93395       -2.16696
C         45.79743       38.78207       -1.21275
C         44.29045       38.59505       -1.38481
O         43.88411       37.85738       -2.27295
C         46.22292       38.43957        0.25262
C         45.93045       36.95945        0.61670
C         47.69473       38.80784        0.48987
C         46.04031       36.67841        2.11367
H         46.34386       36.92231       -2.12121
H         46.01663       39.86001       -1.38251
H         45.63958       39.08640        0.93713
H         46.61491       36.28229        0.06207
H         44.88804       36.70332        0.33235
H         48.35490       38.17323       -0.12450
H         47.87058       39.87381        0.22991
H         47.97737       38.68008        1.55356
H         47.06108       36.86863        2.49729
H         45.31143       37.30790        2.66906
H         45.80018       35.61196        2.29937
N         43.40386       39.17905       -0.51833
C         41.97292       38.89567       -0.52853
C         41.18120       40.19702       -0.56995
O         40.31226       40.42165        0.25945
C         41.66363       38.02162        0.71000
C         40.25422       37.50166        0.79548
O         39.91454       36.70102        1.82300
O         39.42108       37.77446       -0.05442
H         43.75335       39.78526        0.23750
H         41.70803       38.30773       -1.43410
H         41.89771       38.59448        1.63422
H         42.33231       37.13332        0.67953
N         41.47139       41.11770       -1.52552
C         40.77815       42.39540       -1.70836
C         40.57509       43.16608       -0.39380
O         41.54177       43.39122        0.31471
C         41.50220       43.22493       -2.80593
C         43.00474       43.34850       -2.60245
C         43.56191       44.18537       -1.61969
C         43.87171       42.58543       -3.41150
C         44.94839       44.23311       -1.43351
C         45.25364       42.63305       -3.21955
C         45.79226       43.45265       -2.22767
H         42.24447       40.88260       -2.16384
H         39.77890       42.15858       -2.11706
H         41.02995       44.21989       -2.95461
H         41.33637       42.65908       -3.74954
H         42.93456       44.80641       -0.99842
H         43.47681       41.93102       -4.17905
H         45.36979       44.87376       -0.66995
H         45.90508       42.02787       -3.83698
H         46.86354       43.48472       -2.07771
N         39.32755       43.58800        0.01017
C         39.02905       44.28780        1.25922
C         39.51452       43.57977        2.50986
O         40.09317       44.22237        3.37439
C         37.49053       44.32361        1.29076
C         37.15322       44.44798       -0.16905
C         38.12258       43.44947       -0.79083
H         39.43768       45.32193        1.20135
H         37.08297       43.33696        1.61217
H         37.06064       45.10679        1.95146
H         36.08674       44.28244       -0.43275
H         37.44674       45.47439       -0.48852
H         37.76212       42.39947       -0.71402
H         38.26095       43.75007       -1.85191
N         39.27578       42.24790        2.67549
C         39.58113       41.49855        3.89605
C         41.06394       41.49453        4.25694
O         41.38164       41.03579        5.34600
C         39.13264       40.02733        3.73710
C         37.62288       39.84768        3.49428
C         37.35936       38.44277        3.03993
O         37.62589       37.49133        3.75713
O         36.89944       38.24025        1.78952
H         38.82067       41.75923        1.89271
H         39.02416       41.97136        4.73589
H         39.40707       39.43233        4.63672
H         39.69320       39.61480        2.86852
H         37.26847       40.51339        2.68344
H         37.04295       40.09401        4.40939
N         42.02633       41.95483        3.40753
C         43.43865       41.96690        3.72785
H         43.98579       41.34315        2.99051
H         43.81641       43.00917        3.66888
H         43.64866       41.57669        4.74552
H         41.76890       42.30038        2.47828
Ca        36.84632       36.20667        0.81673
O         35.02692       35.04166        2.92773
H         35.91042       35.30303        3.29069
H         34.69648       35.85391        2.46703
O         35.21957       38.27123       -0.80033
H         34.91708       37.40866       -1.18135
H         35.71048       38.71178       -1.53872
O         35.57879       33.85403       -0.70004
H         35.00828       34.05887        0.08298
H         35.25418       34.46527       -1.40805
O         37.18874       36.38948       -2.58061
H         37.85966       36.84704       -3.14701
H         36.76017       35.73227       -3.18477

Ca 1.0



