%chk=apoCaM-CA-Ng.loop4.water4.frame116.chk
%nprocshared=20
%mem=10GB
%nosave
#b3lyp/svp scf=(tight,noincore,xqc) Test 
#IOP(5/87=12) Density=Current Pop=(MK,readradii) iop(6/33=2) iop(6/42=6)

apoCaM-CA-Ng.loop4.water4.frame116 

   -3  1 
C         28.45825       74.72438       14.18858
C         27.62731       75.62836       15.09683
O         27.80845       75.25889       16.44057
H         29.52700       74.77115       14.48312
H         28.10010       73.67544       14.25525
H         28.37493       75.06832       13.13480
N         26.20496       75.62744       14.69167
C         25.39415       76.72322       15.27444
C         26.21168       77.96938       15.60620
O         26.23783       78.37633       16.75019
C         24.44813       76.17064       16.37100
C         25.08784       75.35148       17.45597
O         25.93407       75.91083       18.33196
O         24.80473       74.16893       17.57189
H         26.17920       75.75738       13.65244
H         24.67736       77.08622       14.50067
H         23.72374       75.50289       15.85265
H         23.86162       76.99935       16.82359
N         26.86918       78.61536       14.58979
C         27.72207       79.81512       14.62192
C         27.00352       81.05800       15.13849
O         26.78183       81.96490       14.34754
C         29.10035       79.60933       15.32143
C         30.05304       80.83030       15.14600
C         29.81231       78.34117       14.83720
C         30.51481       81.09722       13.70399
H         26.74335       78.20915       13.64925
H         27.96341       80.00939       13.55428
H         28.92306       79.48744       16.40236
H         30.96497       80.65764       15.75861
H         29.56680       81.74767       15.53774
H         29.94858       78.33107       13.73683
H         30.79811       78.24578       15.32873
H         29.23450       77.45923       15.12083
H         29.66387       81.32102       13.03146
H         31.19175       81.97587       13.69032
H         31.08425       80.23528       13.29759
N         26.64542       81.20084       16.44849
C         26.02888       82.40736       16.97092
C         27.07144       83.51172       17.10534
O         26.87450       84.53837       16.47070
C         25.24382       82.13099       18.27701
C         24.09492       81.18791       18.04067
O         23.20334       81.48635       17.26208
O         24.03238       80.01712       18.70251
H         26.85984       80.46431       17.12427
H         25.25201       82.75507       16.25074
H         24.82920       83.08584       18.66641
H         25.87586       81.68586       19.05959
N         28.20998       83.43086       17.86364
C         28.61680       82.27596       18.66295
C         29.90517       82.49885       19.42897
O         30.48908       83.56541       19.29385
H         28.81738       84.26389       17.84796
H         28.75584       81.41044       17.99571
H         27.85426       82.09748       19.42180
N         30.45563       81.58454       20.28691
C         30.01153       80.23767       20.66861
C         30.07909       79.18212       19.50905
O         28.87882       79.16194       18.78739
C         28.67637       80.26331       21.45075
C         28.38474       79.00362       22.22524
O         27.26663       78.93703       22.97258
O         29.15011       78.05330       22.20971
H         31.32325       81.89108       20.75772
H         30.75465       79.90002       21.42298
H         27.82305       80.45271       20.77590
H         28.72666       81.08588       22.19649
N         31.20450       79.39943       18.57685
C         32.53623       79.59487       19.18442
C         33.06322       80.96167       18.81469
O         32.48835       81.61152       17.95140
H         31.23650       78.62348       17.88144
H         33.25706       78.82364       18.83852
H         32.50638       79.50027       20.28488
N         34.13294       81.49655       19.47024
C         34.63019       82.83556       19.15460
C         35.27830       82.88451       17.78370
O         35.45666       83.97978       17.26690
C         35.64370       83.33150       20.20256
C         34.99262       83.53946       21.58048
C         35.96925       84.03427       22.62069
N         35.53324       84.31341       23.87001
O         37.15137       84.18865       22.34724
H         34.56456       80.95634       20.23538
H         33.76252       83.53514       19.15548
H         36.05065       84.31524       19.87646
H         36.48545       82.60667       20.27132
H         34.54641       82.59039       21.94438
H         34.18194       84.29409       21.47713
H         34.53967       84.19672       24.11767
H         36.18837       84.65327       24.58955
N         35.68999       81.74958       17.14995
C         36.29652       81.74186       15.82597
C         37.74843       81.27688       15.85395
O         38.35862       81.28834       14.79592
C         35.43600       80.89826       14.84173
C         34.08306       81.57741       14.59215
C         35.21326       79.45079       15.31763
H         35.58549       80.84559       17.63135
H         36.34570       82.77489       15.41426
H         35.96181       80.86282       13.86224
H         34.23768       82.60095       14.18798
H         33.50155       80.99878       13.84494
H         33.49119       81.65136       15.52685
H         34.61443       79.41600       16.25221
H         34.64927       78.88440       14.54712
H         36.18226       78.93821       15.49007
N         38.38504       80.89851       17.00612
C         39.80656       80.54743       17.03763
C         40.04288       79.10330       17.44050
O         41.20343       78.70297       17.43670
C         40.54399       81.47809       18.02124
C         40.38484       82.93172       17.65624
N         39.80619       83.79993       18.51921
O         40.78804       83.33110       16.57403
H         37.87559       80.88728       17.89974
H         40.26146       80.66942       16.03110
H         41.63024       81.23841       18.02466
H         40.15361       81.30055       19.04776
H         39.46258       83.48435       19.43827
H         39.70215       84.79434       18.26954
N         39.03548       78.25359       17.78954
C         39.27600       76.86984       18.20370
C         37.99584       76.08076       18.40296
O         36.93658       76.67707       18.54354
C         40.13399       76.81976       19.50290
C         39.63523       77.76762       20.58454
C         40.43936       78.85774       20.96872
C         38.38595       77.59834       21.21089
C         40.00119       79.76204       21.93954
C         37.94812       78.50729       22.18139
C         38.75434       79.59452       22.54625
O         38.34408       80.48162       23.47560
H         38.06431       78.59897       17.75354
H         39.81297       76.35542       17.37506
H         41.16972       77.10892       19.23588
H         40.20926       75.78367       19.89654
H         41.40678       79.01792       20.50962
H         37.74362       76.76962       20.95779
H         40.63193       80.59753       22.21665
H         36.98122       78.36638       22.64838
H         37.48608       80.40736       23.91712
N         38.05977       74.71584       18.48054
C         36.96034       73.79116       18.76014
C         36.00299       73.56664       17.58454
O         35.79566       72.41432       17.22714
C         36.25195       74.16050       20.07998
C         35.34888       73.02531       20.58611
C         34.77588       73.35893       21.93319
O         35.59579       73.58217       22.97919
O         33.56728       73.41125       22.09257
H         38.99548       74.28533       18.39802
H         37.43357       72.79962       18.94937
H         35.65999       75.09354       19.97100
H         37.04190       74.32842       20.84571
H         35.94586       72.09289       20.69208
H         34.53007       72.83957       19.85786
N         35.36729       74.58985       16.94864
C         34.36013       74.41497       15.90461
C         34.86022       73.72510       14.64088
O         34.03353       73.46792       13.77456
C         33.74939       75.78567       15.51406
C         33.13363       76.58863       16.67590
C         32.04854       75.83286       17.38607
O         30.89400       76.20652       17.30439
O         32.34277       74.76026       18.14517
H         35.55968       75.54027       17.24770
H         33.55635       73.76860       16.31183
H         32.94990       75.62591       14.75683
H         34.53903       76.41439       15.04600
H         32.72197       77.52003       16.23755
H         33.88903       76.90746       17.42142
N         36.16300       73.38004       14.44377
C         36.58387       72.68492       13.24616
H         37.67308       72.47679       13.28894
H         36.04170       71.71772       13.16206
H         36.36907       73.30525       12.35014
H         36.88097       73.60058       15.14620
Ca        28.36033       77.12819       17.75636
O         27.19751       74.60228       20.74511
H         27.84835       74.25945       21.40744
H         26.89239       73.79669       20.25708
O         26.44242       77.98106       20.03012
H         26.43200       77.36597       20.80561
H         25.72685       78.63601       20.22052
O         29.34574       73.59467       18.36418
H         29.77559       72.88679       18.90621
H         29.83128       73.57592       17.50136
O         30.23429       75.91851       20.25392
H         31.16199       76.19269       20.46426
H         29.81400       75.77118       21.13717

Ca 1.0



