%chk=apoCaM-CA-Ng.loop1.water6.frame675.chk
%nprocshared=20
%mem=10GB
%nosave
#b3lyp/svp scf=(tight,noincore,xqc) Test 
#IOP(5/87=12) Density=Current Pop=(MK,readradii) iop(6/33=2) iop(6/42=6)

apoCaM-CA-Ng.loop1.water6.frame675 

   0  1 
C         -6.52513       31.84716       67.05916
C         -7.72033       31.12572       66.50726
O         -8.78851       31.71141       66.40835
H         -5.71675       31.86115       66.29709
H         -6.77972       32.89338       67.33020
H         -6.15582       31.32012       67.96439
N         -7.59598       29.83052       66.11267
C         -8.68858       29.04640       65.54187
C         -9.90855       28.95802       66.46681
O         -9.76424       28.86162       67.67691
C         -8.18068       27.69078       64.96794
C         -7.17543       26.91926       65.80718
O         -6.02265       26.83089       65.41397
O         -7.50757       26.29977       66.95249
H         -6.66368       29.40030       66.20264
H         -9.05087       29.59287       64.64177
H         -7.63205       27.96303       64.03761
H         -9.03194       27.04931       64.65196
N        -11.15661       29.08329       65.91549
C        -12.43339       29.16600       66.62989
C        -13.31909       28.00204       66.15667
O        -13.51315       27.89998       64.95240
C        -13.08049       30.51993       66.22783
C        -14.39443       30.83558       66.95301
C        -15.26157       31.81038       66.13805
C        -16.61587       32.12845       66.79663
N        -16.47491       33.02257       67.94562
H        -11.21250       29.16065       64.88784
H        -12.27947       29.13231       67.72972
H        -13.26833       30.46526       65.13279
H        -12.38234       31.36973       66.39830
H        -14.18048       31.20863       67.97428
H        -14.96658       29.90937       67.02770
H        -15.48337       31.30428       65.17163
H        -14.71909       32.75384       65.91803
H        -17.13454       31.19026       67.09593
H        -17.25574       32.63591       66.04090
H        -15.90153       32.58181       68.69841
H        -16.03346       33.92027       67.63849
H        -17.42564       33.23670       68.32546
N        -13.86859       27.07394       67.00928
C        -14.50533       25.84177       66.51653
C        -15.18187       25.00440       67.62251
O        -14.63617       23.97633       67.99978
C        -13.42608       24.98849       65.78521
C        -12.28324       24.60214       66.68673
O        -11.77331       25.51641       67.52758
O        -11.81775       23.47458       66.65658
H        -13.74843       27.18894       68.02031
H        -15.28079       26.09101       65.76238
H        -12.98839       25.57836       64.95718
H        -13.86655       24.08334       65.31406
N        -16.42757       25.26082       68.12068
C        -17.28626       26.36629       67.75483
C        -16.88597       27.61114       68.48366
O        -16.62021       28.60727       67.84072
H        -16.83237       24.56555       68.76793
H        -18.32198       26.13928       68.08895
H        -17.32699       26.49076       66.65134
N        -16.88422       27.64186       69.84746
C        -16.53339       28.83711       70.61670
C        -15.05693       29.18174       70.48512
O        -14.30437       28.38460       69.95096
C        -16.91740       28.65141       72.10073
C        -16.20654       27.49200       72.75463
O        -16.84841       26.55084       73.19326
O        -14.86448       27.48777       72.86870
H        -17.19203       26.79241       70.34532
H        -17.13466       29.68524       70.21860
H        -18.01563       28.47887       72.15030
H        -16.69724       29.57773       72.67166
N        -14.56892       30.36918       70.94218
C        -13.15930       30.71786       70.78788
C        -12.86096       32.17517       71.07646
O        -13.73915       32.91281       71.50331
H        -15.23283       31.04419       71.34961
H        -12.88215       30.56219       69.72467
H        -12.52239       30.05061       71.40780
N        -11.63540       32.67772       70.74605
C        -11.33056       34.10822       70.75624
C        -10.00933       34.42365       71.44621
O         -9.31518       33.51819       71.88942
C        -11.33578       34.62847       69.28934
C        -10.24873       33.99348       68.41255
O        -12.58517       34.37321       68.70033
H        -10.94042       32.03110       70.34151
H        -12.12259       34.66683       71.30138
H        -11.15095       35.72569       69.27158
H        -13.22707       35.02098       69.09329
H         -9.23880       34.19247       68.82746
H        -10.39490       32.89788       68.32117
H        -10.29484       34.42826       67.39178
N         -9.59012       35.72317       71.53216
C         -8.29835       36.12366       72.09228
C         -8.27622       35.92902       73.61234
O         -7.20787       35.99214       74.20282
C         -7.95934       37.60866       71.70027
C         -8.10860       37.90113       70.17485
C         -6.55066       38.04122       72.16029
C         -7.23259       37.04732       69.25613
H        -10.21010       36.44834       71.15007
H         -7.52506       35.46724       71.63528
H         -8.69025       38.27394       72.21215
H         -7.87357       38.97253       69.99152
H         -9.15920       37.76786       69.85088
H         -5.76686       37.38811       71.72362
H         -6.35360       39.09033       71.85271
H         -6.45074       38.02539       73.26136
H         -6.15604       37.20123       69.46815
H         -7.48387       35.97224       69.35806
H         -7.42051       37.34287       68.20196
N         -9.42224       35.68242       74.31034
C         -9.48226       35.49203       75.75525
C        -10.44645       36.49974       76.37888
O        -11.00283       37.32546       75.66689
C         -9.86001       34.01841       76.05981
C        -11.17597       33.56664       75.41773
O         -8.82454       33.18586       75.59811
H        -10.31729       35.62968       73.80668
H         -8.48960       35.66949       76.22597
H         -9.96350       33.90546       77.16323
H         -8.61177       32.53904       76.32140
H        -11.39155       32.52026       75.71915
H        -12.01632       34.21363       75.74275
H        -11.10456       33.58332       74.30980
N        -10.69012       36.47751       77.72128
C        -11.59384       37.39867       78.40593
C        -10.85193       38.10406       79.53226
O        -10.81177       39.32692       79.53397
C        -12.88592       36.66924       78.85922
C        -12.69746       35.51818       79.85061
O        -13.52686       36.15764       77.71548
H        -10.22451       35.75624       78.28688
H        -11.95193       38.18549       77.70289
H        -13.53978       37.42464       79.36097
H        -14.40307       36.61598       77.62612
H        -12.03265       34.73555       79.42875
H        -12.30016       35.88007       80.81834
H        -13.68406       35.05533       80.06377
N        -10.19831       37.39508       80.49874
C         -9.36411       38.01341       81.51988
C         -8.22406       37.06609       81.84394
O         -8.46919       36.00058       82.39430
C        -10.20939       38.35965       82.76147
C         -9.38035       39.03194       83.87231
C        -10.22832       39.47238       85.07841
C        -10.86912       38.30093       85.84276
N        -11.63094       38.78703       86.99348
H        -10.18679       36.36791       80.43162
H         -8.93015       38.95227       81.10868
H        -10.67497       37.42702       83.14326
H        -11.02073       39.05389       82.45117
H         -8.90160       39.94101       83.44772
H         -8.57578       38.34911       84.22260
H        -11.01840       40.17467       84.73453
H         -9.56132       40.01940       85.78032
H        -10.07132       37.61058       86.19681
H        -11.55603       37.73409       85.17994
H        -11.00467       39.30869       87.64890
H        -12.40454       39.41349       86.67182
H        -12.04627       37.97192       87.50001
N         -6.95626       37.36888       81.44591
C         -5.82389       36.46817       81.62182
C         -5.49538       35.76665       80.30229
O         -5.60094       34.54782       80.29672
C         -4.62997       37.19112       82.28463
C         -3.45057       36.23665       82.54762
C         -2.27913       36.91120       83.21266
O         -2.30546       38.09910       83.49657
O         -1.17801       36.18970       83.49479
H         -6.81829       38.24883       80.93518
H         -6.11031       35.66032       82.33426
H         -4.97402       37.61202       83.25533
H         -4.27025       38.03327       81.66620
H         -3.09512       35.81329       81.58396
H         -3.79102       35.40332       83.19918
N         -5.11842       36.37223       79.13394
C         -4.93499       37.78692       78.88461
H         -3.89690       37.96117       78.53426
H         -5.63794       38.10867       78.08754
H         -5.09787       38.42881       79.75523
H         -4.94907       35.76006       78.32031
Ca        -9.63851       26.04718       67.46141
O        -11.47434       27.03126       70.30335
H        -11.76956       27.61705       69.56340
H        -12.08760       27.24028       71.05188
O         -6.67510       27.91782       69.32192
H         -6.33027       28.22054       68.44512
H         -5.90095       27.47418       69.75069
O         -8.79301       27.34385       71.46504
H         -8.16376       27.07531       72.18044
H         -9.38044       28.01799       71.89027
O        -10.81444       24.13978       70.63549
H        -11.79694       24.26387       70.64701
H        -10.56958       24.00989       71.58607
O         -8.69300       23.27733       68.13802
H         -9.55719       22.79702       68.18403
H         -8.08652       22.65771       67.66055
O         -7.18855       24.84256       70.40486
H         -6.41449       25.21412       70.89777
H         -6.88450       23.94910       70.10637

Ca 1.0



