%chk=apoCaM-CA-Ng.loop1.water3.frame455.chk
%nprocshared=20
%mem=10GB
%nosave
#b3lyp/svp scf=(tight,noincore,xqc) Test 
#IOP(5/87=12) Density=Current Pop=(MK,readradii) iop(6/33=2) iop(6/42=6)

apoCaM-CA-Ng.loop1.water3.frame455 

   0  1 
C         76.67226       77.14654       66.43927
C         75.58222       77.58630       65.50677
O         74.85767       76.75265       64.98259
H         77.65458       77.48829       66.04945
H         76.50717       77.59706       67.44130
H         76.68911       76.04146       66.54057
N         75.40747       78.91209       65.26505
C         74.36283       79.45108       64.39849
C         74.61912       79.19115       62.91063
O         73.85639       79.71917       62.11952
C         74.21574       80.97846       64.63065
C         73.75768       81.31154       66.03042
O         74.52079       81.01013       67.09811
O         72.68832       81.87543       66.20287
H         76.02839       79.57013       65.76099
H         73.38204       79.00551       64.67174
H         73.44297       81.37464       63.93590
H         75.17193       81.50118       64.41262
N         75.64313       78.42598       62.42772
C         75.93536       78.31296       60.99832
C         75.77498       76.90098       60.46131
O         76.32287       75.99341       61.07249
C         77.37873       78.78155       60.73616
C         77.50488       80.29501       60.91894
C         78.93073       80.77951       60.65596
C         78.98941       82.31203       60.69560
N         80.35478       82.78882       60.48605
H         76.27867       77.94087       63.07456
H         75.26818       78.96432       60.43378
H         77.65411       78.55569       59.68218
H         78.08342       78.23320       61.39957
H         77.19418       80.59477       61.94328
H         76.83071       80.77114       60.18178
H         79.26546       80.43664       59.65185
H         79.60705       80.35003       61.42666
H         78.61955       82.67898       61.67856
H         78.33016       82.72427       59.89777
H         80.71761       82.45366       59.56409
H         80.35543       83.83432       60.49138
H         80.97315       82.44513       61.25630
N         75.15034       76.60572       59.26861
C         74.48192       77.53900       58.34306
C         75.39785       78.68577       57.93100
O         75.15421       79.82291       58.30320
C         73.09082       77.96137       58.86312
C         72.17607       76.76789       58.95499
O         71.03565       76.90366       59.36990
O         72.62847       75.53777       58.62857
H         75.18703       75.62124       58.96133
H         74.22841       77.00253       57.40368
H         72.62501       78.67912       58.15452
H         73.16326       78.43791       59.85948
N         76.47341       78.49350       57.12433
C         76.70552       77.23155       56.44538
C         77.86437       77.28159       55.47212
O         78.62524       78.23582       55.48312
H         77.06514       79.31049       56.91442
H         75.79536       77.04519       55.83670
H         76.85653       76.40361       57.16953
N         78.04415       76.30944       54.53036
C         77.17491       75.14770       54.36600
C         76.32267       75.29268       53.11891
O         76.54571       76.20462       52.33021
C         78.00672       73.85136       54.38457
C         79.08193       73.83199       53.33005
O         78.79201       73.87952       52.14544
O         80.37702       73.76880       53.69514
H         78.80957       76.44292       53.85027
H         76.45385       75.07010       55.20337
H         77.34663       72.96776       54.25296
H         78.49000       73.76930       55.38258
N         75.25858       74.46408       52.92677
C         74.32825       74.59358       51.81824
C         73.70647       75.97082       51.79140
O         73.82763       76.64647       50.77967
H         75.06749       73.72825       53.62533
H         73.52218       73.83636       51.92775
H         74.85906       74.39626       50.86056
N         73.06284       76.46765       52.88881
C         72.51402       77.81943       52.94253
C         73.30920       78.62979       53.95377
O         73.28297       78.32426       55.13753
C         71.01025       77.79130       53.28600
C         70.20507       77.06699       52.20119
O         70.53727       79.10793       53.39846
H         73.00144       75.88140       53.73558
H         72.61612       78.31530       51.95245
H         70.88464       77.25982       54.25951
H         69.70856       79.06633       53.94385
H         70.31765       77.58951       51.22645
H         70.54412       76.01614       52.09004
H         69.12836       77.06023       52.47381
N         74.09323       79.65820       53.51960
C         74.98679       80.42459       54.38868
C         74.26440       81.46211       55.25738
O         74.94000       82.14138       56.01877
C         76.10636       81.12912       53.55017
C         75.53848       82.22646       52.60526
C         76.94354       80.08408       52.78167
C         76.62250       83.05673       51.91737
H         74.12901       79.82241       52.50483
H         75.50805       79.70960       55.05560
H         76.79236       81.62339       54.27438
H         74.92699       82.93831       53.19867
H         74.88522       81.78445       51.82510
H         77.33996       79.32268       53.48156
H         76.34312       79.56382       52.00698
H         77.81816       80.55161       52.28772
H         76.14274       83.85016       51.30635
H         77.27368       83.54016       52.67625
H         77.24112       82.43762       51.23768
N         72.92347       81.69916       55.15040
C         72.24811       82.83251       55.79769
C         72.19988       82.80160       57.32965
O         71.65092       83.73860       57.89058
C         70.81024       82.99942       55.23011
C         69.86419       81.87549       55.66499
O         70.84599       83.04765       53.82633
H         72.38278       81.12999       54.48613
H         72.80383       83.75180       55.50420
H         70.36679       83.94905       55.61118
H         71.25766       83.91605       53.57711
H         69.74626       81.86978       56.76674
H         68.86071       82.03712       55.21899
H         70.24449       80.88645       55.34889
N         72.73725       81.78731       58.07005
C         72.70668       81.69641       59.53631
C         71.30042       81.34808       60.02810
O         70.37372       81.33898       59.23014
C         73.32571       82.96085       60.21977
C         74.73298       83.26155       59.68797
O         73.40780       82.77127       61.60768
H         73.20089       81.01881       57.57612
H         73.33456       80.82675       59.81580
H         72.67754       83.84086       60.02012
H         73.53749       83.66602       62.02008
H         75.14544       84.16423       60.18793
H         75.40531       82.41181       59.89787
H         74.72130       83.45204       58.59550
N         71.07677       80.99817       61.33092
C         69.76702       80.64413       61.87029
C         69.72363       79.22373       62.45270
O         68.66853       78.84768       62.94356
C         69.38140       81.68188       62.94424
C         69.28104       83.09650       62.34623
C         68.93889       84.13554       63.41816
C         68.84172       85.54005       62.80552
N         68.57743       86.54353       63.83569
H         71.85885       81.00323       61.99454
H         68.98990       80.67824       61.07520
H         70.14117       81.66814       63.75720
H         68.39296       81.41784       63.38065
H         68.49703       83.10378       61.55655
H         70.25193       83.38001       61.88487
H         69.73720       84.12909       64.19210
H         67.97015       83.87610       63.89894
H         68.02413       85.56067       62.05030
H         69.79741       85.79102       62.29323
H         67.67615       86.33374       64.32274
H         69.35989       86.55638       64.52992
H         68.51064       87.48558       63.38686
N         70.78542       78.35949       62.40503
C         70.70770       76.98266       62.90499
C         70.49188       76.94451       64.40223
O         71.33627       77.42162       65.14770
C         71.98409       76.19043       62.53622
C         72.02678       74.70990       62.97484
C         70.81118       73.87731       62.62100
O         69.83545       73.89331       63.35043
O         70.82239       73.02882       61.57509
H         71.65508       78.66156       61.95067
H         69.86153       76.48249       62.38542
H         72.88439       76.69815       62.94830
H         72.08527       76.20355       61.44425
H         72.18251       74.63237       64.07230
H         72.92749       74.26262       62.49864
N         69.38401       76.34126       64.91215
C         69.17329       76.18419       66.33231
H         68.21951       75.64332       66.51148
H         70.00177       75.58472       66.76813
H         69.12738       77.17652       66.82535
H         68.67466       75.95322       64.27255
Ca        71.84779       73.78265       59.75081
O         71.12971       70.96312       56.82478
H         71.54316       71.00801       55.92606
H         70.82079       70.02609       56.90925
O         70.90765       74.20071       56.24722
H         70.12553       74.79158       56.38765
H         70.88297       73.98084       55.28209
O         68.97358       73.16250       58.58486
H         68.55689       73.85593       59.15585
H         68.52871       72.31919       58.85164

Ca 1.0



