%chk=apoCaM-CA-Ng.loop2.water5.frame462.chk
%nprocshared=20
%mem=10GB
%nosave
#b3lyp/svp scf=(tight,noincore,xqc) Test 
#IOP(5/87=12) Density=Current Pop=(MK,readradii) iop(6/33=2) iop(6/42=6)

apoCaM-CA-Ng.loop2.water5.frame462 

   -2  1 
C         45.30660       66.71589       67.16918
C         45.44621       67.76225       66.09790
O         46.54041       68.27582       65.91441
H         44.26576       66.33349       67.23108
H         45.98065       65.86163       66.94928
H         45.57963       67.14536       68.15552
N         44.37605       68.11762       65.33199
C         44.45682       69.10991       64.26417
C         44.73264       70.48629       64.84082
O         43.90295       70.98143       65.59167
C         43.12626       69.13700       63.47708
C         43.12347       70.07434       62.29540
O         44.21366       70.79486       61.96527
O         42.11315       70.17901       61.61939
H         43.47786       67.63686       65.49723
H         45.26458       68.80233       63.56282
H         42.30174       69.42952       64.16527
H         42.91249       68.11374       63.09995
N         45.88054       71.16068       64.53804
C         46.16291       72.49645       65.05299
C         47.17326       72.42321       66.17311
O         47.69825       71.35197       66.44643
C         46.62519       73.41666       63.91881
H         46.59662       70.69645       63.95791
H         45.24284       72.93381       65.49914
H         45.84573       73.46881       63.12924
H         46.80774       74.44578       64.29441
H         47.56545       73.03256       63.46763
N         47.43036       73.52783       66.92814
C         48.17719       73.45096       68.17859
C         49.65345       73.69591       67.96203
O         50.06923       74.02731       66.85967
C         47.59231       74.44293       69.20592
C         46.14325       74.14970       69.48224
O         45.28915       74.98969       69.24830
O         45.78209       72.95852       69.99537
H         46.93069       74.40251       66.70285
H         48.07333       72.42812       68.60661
H         47.70161       75.48093       68.82018
H         48.13892       74.37277       70.16925
N         50.51362       73.52171       69.00444
C         51.94960       73.71330       68.91849
C         52.62042       72.73722       67.98025
O         51.95379       71.95100       67.32039
H         50.13328       73.23846       69.92014
H         52.38233       73.55216       69.92982
H         52.17482       74.75572       68.60638
N         53.97953       72.73704       67.88910
C         54.72466       71.85142       66.99457
C         54.47767       70.38052       67.31568
O         53.81168       70.07249       68.29576
C         56.23046       72.18813       67.05744
C         56.48012       73.61446       66.62107
N         56.99663       74.52604       67.47879
O         56.20191       73.95098       65.47950
H         54.49720       73.41444       68.47109
H         54.36344       72.02935       65.95690
H         56.81368       71.51883       66.39051
H         56.58929       72.03161       68.09889
H         57.22872       74.27041       68.44938
H         57.15349       75.49867       67.17423
N         54.93393       69.41049       66.47119
C         54.58353       68.00531       66.62538
C         55.16118       67.36091       67.86259
O         55.93444       67.98672       68.57462
H         55.47063       69.68523       65.63441
H         54.95025       67.43284       65.74603
H         53.47576       67.92283       66.65134
N         54.80119       66.07902       68.17270
C         55.32196       65.35276       69.33071
C         54.25480       65.10962       70.39691
O         54.62531       64.75411       71.50785
C         56.00285       64.03079       68.88589
C         55.02344       62.98864       68.31133
O         57.03181       64.29593       67.96408
H         54.12416       65.60719       67.55548
H         56.09694       65.97881       69.82453
H         56.47096       63.56421       69.77966
H         56.61152       64.53336       67.09536
H         54.26746       62.71155       69.06843
H         54.49883       63.36593       67.40977
H         55.57472       62.06665       68.03161
N         52.92386       65.27980       70.14568
C         51.87464       65.18654       71.16321
C         51.07323       66.48170       71.17434
O         51.36460       67.36756       70.37900
C         50.96033       63.94380       70.92908
C         50.33308       63.92944       69.51154
C         51.74531       62.65443       71.22794
C         49.25939       62.85335       69.33793
H         52.62177       65.51093       69.18916
H         52.31684       65.08676       72.17951
H         50.13768       63.98150       71.67380
H         51.12268       63.77886       68.74369
H         49.84074       64.90663       69.32040
H         51.09395       61.75980       71.17840
H         52.58180       62.52491       70.51819
H         52.15931       62.69185       72.25869
H         48.83361       62.92005       68.31481
H         49.67369       61.83341       69.46403
H         48.44045       63.01185       70.07175
N         50.04266       66.66533       72.05227
C         49.25231       67.88870       72.08956
C         49.36935       68.51935       73.46750
O         48.36539       68.81453       74.09353
C         47.79947       67.55712       71.67563
C         46.90621       68.75947       71.50703
O         45.62468       68.57939       71.13888
O         47.32616       69.89436       71.67389
H         49.80162       65.91610       72.71897
H         49.64953       68.62389       71.35660
H         47.35044       66.86675       72.42085
H         47.82392       67.03275       70.69541
N         50.60026       68.75719       73.99681
C         50.82633       69.39488       75.29283
C         50.19381       68.57898       76.42339
O         50.47935       67.39104       76.49536
C         52.35004       69.51105       75.53170
C         52.69821       70.43475       76.67047
C         52.43506       71.81129       76.55286
C         53.31637       69.95064       77.83472
C         52.78661       72.68851       77.58087
C         53.66044       70.83243       78.86551
C         53.39851       72.19987       78.73715
H         51.42017       68.47974       73.43447
H         50.40362       70.41832       75.23982
H         52.84665       69.92844       74.62848
H         52.76724       68.49141       75.69116
H         51.97163       72.20704       75.65743
H         53.53170       68.89540       77.94558
H         52.58952       73.74778       77.47696
H         54.13598       70.45728       79.76217
H         53.67286       72.88205       79.53119
N         49.35050       69.12109       77.36083
C         48.77341       68.35181       78.45660
C         47.50204       67.61808       78.03797
O         46.95350       66.88206       78.84630
C         48.44947       69.43964       79.48744
C         47.97993       70.57546       78.59316
C         49.00820       70.52770       77.46173
H         49.50396       67.63253       78.88842
H         47.74395       69.13866       80.29216
H         49.40163       69.77061       79.96148
H         46.98525       70.28604       78.18374
H         47.87571       71.56825       79.07932
H         48.56025       70.94084       76.53236
H         49.92647       71.08855       77.73601
N         46.93305       67.84159       76.82169
C         45.66361       67.27122       76.40273
C         45.82722       65.79477       76.11887
O         45.14041       64.99091       76.73332
C         45.11657       68.00658       75.15474
C         44.93294       69.51594       75.41761
C         44.30904       70.20235       74.24292
O         44.90483       71.09659       73.66357
O         43.07347       69.85411       73.84185
H         47.38117       68.51175       76.19562
H         44.91065       67.42757       77.20896
H         44.13026       67.56119       74.89618
H         45.79653       67.87111       74.28646
H         45.91230       69.99705       75.62276
H         44.28003       69.67220       76.30192
N         46.73240       65.37233       75.19035
C         46.93988       63.98171       74.84228
H         47.99119       63.70079       75.06115
H         46.26704       63.29908       75.40229
H         46.75220       63.84546       73.75632
H         47.31367       66.06988       74.70300
Ca        44.31444       70.38703       70.80511
O         42.79767       72.92269       71.63581
H         42.65328       72.59507       72.55869
H         41.88614       73.02413       71.26285
O         43.20895       68.75661       68.52821
H         42.81054       68.01100       69.04314
H         42.56014       68.93519       67.80246
O         43.01697       72.33420       68.63638
H         43.25711       71.50494       68.15316
H         42.28983       72.73518       68.09771
O         46.32421       70.10973       68.60210
H         46.84413       69.27360       68.49957
H         45.68232       70.10226       67.84872
O         41.58516       69.30945       71.20018
H         41.25166       69.77474       72.00740
H         41.55355       68.34797       71.43416

Ca 1.0



