%chk=apoCaM-CA-Ng.loop4.water5.frame1018.chk
%nprocshared=20
%mem=10GB
%nosave
#b3lyp/svp scf=(tight,noincore,xqc) Test 
#IOP(5/87=12) Density=Current Pop=(MK,readradii) iop(6/33=2) iop(6/42=6)

apoCaM-CA-Ng.loop4.water5.frame1018 

   -3  1 
C         40.28885       40.78687       23.36533
C         40.39354       39.28399       23.24255
O         40.83493       38.68281       24.20915
H         39.63839       41.02674       24.23279
H         41.29814       41.20800       23.55233
H         39.86553       41.32215       22.50191
N         39.98959       38.55567       22.15924
C         39.36342       39.07854       20.95333
C         37.88769       38.77344       21.05083
O         37.10840       39.71441       21.08961
C         40.02356       38.49595       19.69066
C         41.47331       38.88077       19.60081
O         42.42568       37.92815       19.58458
O         41.79363       40.05690       19.53354
H         40.06128       37.52771       22.23534
H         39.45980       40.17376       20.87018
H         39.50118       38.87114       18.78390
H         39.94991       37.39460       19.69965
N         37.43264       37.48949       21.15982
C         36.03458       37.17483       21.45160
C         35.28496       36.69240       20.22015
O         34.05960       36.66259       20.27154
C         35.92266       36.26955       22.72759
C         36.49277       34.82633       22.60479
C         36.64074       36.96159       23.90462
C         35.66963       33.89303       21.72292
H         38.10360       36.71769       21.09374
H         35.51352       38.12333       21.70525
H         34.84927       36.18733       23.00821
H         36.47438       34.35739       23.61383
H         37.55019       34.83667       22.26598
H         36.23216       37.97990       24.07034
H         36.50098       36.38122       24.84212
H         37.73396       37.04111       23.71567
H         35.68641       34.21503       20.67440
H         36.10004       32.86988       21.76174
H         34.62075       33.84639       22.08761
N         35.92751       36.32920       19.07239
C         35.24839       36.00340       17.81770
C         35.92207       36.78229       16.67626
O         36.92973       37.43590       16.92994
C         35.34244       34.47002       17.60729
C         34.40337       33.85349       16.60228
O         34.47779       32.52953       16.37061
O         33.52032       34.49920       16.06421
H         36.95598       36.26859       19.08388
H         34.17576       36.28729       17.89705
H         35.07840       33.96558       18.55723
H         36.39114       34.20235       17.36226
N         35.45630       36.77951       15.39609
C         36.18353       37.41911       14.30899
C         37.44387       36.64983       13.96099
O         37.67794       35.58382       14.51424
H         34.56411       36.33027       15.16549
H         36.42089       38.46879       14.58880
H         35.55266       37.43944       13.39488
N         38.30735       37.13762       13.02551
C         39.51494       36.41356       12.61777
C         39.13027       35.13919       11.86213
O         37.98796       35.04578       11.43263
C         40.39544       37.32513       11.73203
C         40.82873       38.55442       12.48272
O         41.57255       38.43665       13.59956
O         40.51316       39.66342       12.08228
H         38.10118       38.05869       12.60833
H         40.07984       36.14635       13.53784
H         39.82432       37.61705       10.82262
H         41.31237       36.81061       11.39750
N         39.97803       34.08472       11.66359
C         41.34229       34.00752       12.17833
C         42.01287       32.66616       11.89267
O         41.37523       31.79898       11.31166
H         39.59073       33.28324       11.14262
H         41.31073       34.14198       13.27758
H         41.93479       34.80197       11.71413
N         43.29265       32.36287       12.27428
C         44.25958       33.23374       12.93586
C         43.78180       33.71385       14.29216
O         43.51678       34.89639       14.46267
C         44.80346       34.34425       11.99938
C         45.97860       35.11178       12.64682
C         46.60598       36.09380       11.69496
N         47.24277       35.66386       10.58112
O         46.56207       37.28940       11.94416
H         43.62520       31.40753       12.06506
H         45.16640       32.61804       13.13891
H         44.02872       35.07335       11.70748
H         45.16975       33.84444       11.07616
H         46.76698       34.40466       12.98371
H         45.61609       35.66536       13.53728
H         47.31195       34.65820       10.36795
H         47.68593       36.33757        9.93944
N         43.77936       32.84608       15.34397
C         43.58174       33.27813       16.72222
C         42.47951       32.50841       17.41270
O         42.43867       31.28842       17.33238
C         44.90224       33.17107       17.53978
C         45.98949       34.06831       16.93243
C         45.44062       31.73874       17.70109
H         44.03862       31.86276       15.17254
H         43.31528       34.35813       16.75915
H         44.68884       33.56118       18.55721
H         45.62435       35.11319       16.85382
H         46.89203       34.06616       17.58005
H         46.27620       33.71691       15.91902
H         45.69465       31.29035       16.71897
H         46.35572       31.74993       18.33036
H         44.70795       31.09099       18.22070
N         41.62354       33.17968       18.22910
C         40.67265       32.52929       19.11976
C         41.10284       32.83090       20.55127
O         40.33359       33.32389       21.36351
C         39.24438       32.95704       18.73693
C         39.12312       34.45384       18.69184
N         38.96946       35.09933       17.51375
O         39.21562       35.09285       19.72303
H         41.70943       34.20618       18.29526
H         40.72023       31.42328       19.01336
H         38.48669       32.52133       19.42352
H         39.04796       32.55077       17.72075
H         38.91716       34.57819       16.62711
H         38.93872       36.12720       17.48607
N         42.38009       32.52189       20.90295
C         42.98158       32.71078       22.21850
C         44.21390       33.60606       22.10061
O         44.49034       34.10467       21.01876
C         43.28853       31.31694       22.81939
C         44.03977       30.41014       21.87369
C         45.44103       30.37300       21.86032
C         43.32029       29.60361       20.97205
C         46.11179       29.54299       20.95396
C         43.99005       28.78496       20.06391
C         45.39029       28.75153       20.05087
O         46.04953       27.96797       19.17425
H         42.98251       32.10700       20.17621
H         42.27976       33.21699       22.91771
H         42.30857       30.83511       23.03346
H         43.79416       31.37500       23.80598
H         46.01078       30.98517       22.54744
H         42.23671       29.62405       20.96112
H         47.19365       29.51909       20.94891
H         43.41824       28.18265       19.36885
H         45.58367       27.41669       18.52879
N         44.99393       33.87074       23.18830
C         46.14363       34.77213       23.16176
C         45.91357       35.82996       24.22745
O         46.66679       35.90043       25.18962
C         47.43119       33.94296       23.38508
C         48.71779       34.77410       23.22116
C         49.93987       33.92059       23.40689
O         50.82218       34.20853       24.38308
O         50.14767       32.97163       22.66740
H         44.76472       33.41961       24.08693
H         46.23911       35.27116       22.17250
H         47.45202       33.13438       22.62142
H         47.40560       33.46560       24.39040
H         48.74978       35.59842       23.96192
H         48.74655       35.22172       22.20454
N         44.81013       36.63040       24.15874
C         44.40351       37.49136       25.26069
C         43.16019       36.91562       25.93738
O         42.72738       37.48773       26.92845
C         44.13853       38.95502       24.83118
C         45.30425       39.71167       24.17549
C         45.41583       39.47389       22.69407
O         45.20253       40.50147       21.84995
O         45.69978       38.37804       22.24279
H         44.17880       36.54123       23.34687
H         45.19680       37.51925       26.03968
H         43.90727       39.50006       25.77414
H         43.25125       39.03842       24.17461
H         46.26160       39.51227       24.70176
H         45.08073       40.79595       24.28815
N         42.54193       35.78211       25.47995
C         41.37815       35.19216       26.10655
H         40.54354       35.16572       25.37481
H         41.61929       34.15132       26.40998
H         41.04691       35.75297       27.00424
H         42.89247       35.28540       24.65080
Ca        44.78247       39.96003       19.05227
O         46.34996       40.48356       16.48556
H         45.65701       41.19040       16.45802
H         47.14092       40.92827       16.88141
O         47.58058       40.76637       20.00613
H         47.45690       41.72974       20.19887
H         48.18300       40.74435       19.22115
O         43.10608       39.37626       16.64800
H         42.86890       40.23719       16.22043
H         43.34704       38.77968       15.89591
O         44.80053       42.98177       18.88771
H         44.68248       43.35820       17.97962
H         43.92662       43.12284       19.33146
O         45.61802       37.20768       18.45703
H         45.93743       36.56452       19.13849
H         46.43456       37.47916       17.96669

Ca 1.0



