%chk=apoCaM-CA-Ng.loop1.water5.frame336.chk
%nprocshared=20
%mem=10GB
%nosave
#b3lyp/svp scf=(tight,noincore,xqc) Test 
#IOP(5/87=12) Density=Current Pop=(MK,readradii) iop(6/33=2) iop(6/42=6)

apoCaM-CA-Ng.loop1.water5.frame336 

   0  1 
C         67.49499       89.68435       75.33708
C         68.05189       90.93604       74.72311
O         69.26107       91.11733       74.74003
H         66.38952       89.63857       75.23655
H         67.92727       88.79816       74.82627
H         67.75412       89.64896       76.41499
N         67.22301       91.84435       74.13865
C         67.71044       93.04658       73.47106
C         68.29704       94.08467       74.43363
O         68.75492       95.09594       73.94339
C         66.58259       93.70408       72.63234
C         66.10073       92.82178       71.50435
O         65.50837       91.63866       71.75518
O         66.22976       93.18891       70.34675
H         66.21246       91.63965       74.12288
H         68.50710       92.75409       72.75455
H         66.97572       94.63696       72.17211
H         65.72483       93.98026       73.28283
N         68.34374       93.94768       75.78738
C         68.81167       95.03301       76.65726
C         70.27603       94.88588       77.01811
O         70.67564       93.76407       77.29677
C         67.97364       95.07373       77.94344
C         66.53470       95.51928       77.65823
C         65.77433       95.71594       78.97008
C         64.37094       96.27273       78.71595
N         63.66807       96.49139       79.97880
H         67.99425       93.08610       76.22895
H         68.66881       96.00450       76.16189
H         68.42543       95.81380       78.63625
H         67.99401       94.08744       78.45682
H         66.01760       94.77567       77.01350
H         66.55967       96.49326       77.12084
H         66.32954       96.44267       79.60453
H         65.70870       94.74637       79.50991
H         63.79386       95.56098       78.08553
H         64.45078       97.24125       78.17187
H         63.56912       95.58725       80.49495
H         64.19476       97.17727       80.56801
H         62.71756       96.87751       79.77950
N         71.15493       95.93956       77.14117
C         70.92868       97.38213       76.93694
C         69.84261       97.95325       77.84266
O         68.69855       98.03605       77.42241
C         70.78462       97.79211       75.45634
C         72.01661       97.44695       74.67147
O         73.07144       96.87484       75.28595
O         72.05478       97.66462       73.47219
H         72.10789       95.69310       77.45336
H         71.86682       97.89925       77.22135
H         70.64343       98.89115       75.39038
H         69.91816       97.29900       74.98529
N         70.10871       98.41582       79.09980
C         71.45644       98.47963       79.64556
C         71.53071       99.04437       81.05267
O         70.50115       99.27552       81.66978
H         69.31544       98.76966       79.65559
H         72.03903       99.16898       78.99610
H         71.91675       97.46784       79.64153
N         72.72799       99.35792       81.63234
C         74.01898       99.21238       80.96191
C         74.45009      100.53549       80.36415
O         73.83840      101.55708       80.64866
C         75.07931       98.63948       81.92820
C         75.32066       99.52202       83.12859
O         75.07270       99.05593       84.36735
O         75.74885      100.65711       82.98940
H         72.70582       99.82415       82.55283
H         73.93213       98.50416       80.11359
H         76.04388       98.49999       81.39398
H         74.73734       97.64161       82.27772
N         75.48843      100.57823       79.48231
C         75.95855      101.80962       78.87514
C         74.85881      102.51542       78.12259
O         74.53654      103.64001       78.48168
H         75.96592       99.70057       79.22593
H         76.79396      101.58785       78.17667
H         76.34708      102.47553       79.67645
N         74.23254      101.92562       77.06323
C         73.15523      102.60481       76.34348
C         71.94960      102.78354       77.26137
O         71.88381      102.14077       78.30245
C         72.76258      101.83926       75.04760
C         73.94914      101.71936       74.08087
O         71.72878      102.51978       74.38566
H         74.54174      100.98722       76.76785
H         73.52933      103.61109       76.04774
H         72.41348      100.82018       75.33778
H         71.31974      101.87925       73.74640
H         73.63621      101.17017       73.16705
H         74.30407      102.72864       73.78138
H         74.79234      101.16588       74.53654
N         70.96527      103.67111       76.94292
C         69.78054      103.90084       77.76637
C         68.51915      103.43889       77.03741
O         67.49021      103.32350       77.68420
C         69.77143      105.39104       78.23624
C         70.98477      105.60786       79.18601
C         68.45375      105.79997       78.92166
C         71.18501      107.04851       79.65523
H         71.07087      104.23199       76.08301
H         69.81511      103.25426       78.67251
H         69.88256      106.04116       77.33939
H         71.91914      105.31260       78.66293
H         70.87480      104.95734       80.08226
H         68.46961      106.87026       79.20797
H         67.60263      105.70787       78.21659
H         68.26260      105.18028       79.82215
H         70.33308      107.40107       80.26980
H         72.09282      107.09726       80.29385
H         71.32567      107.72106       78.78385
N         68.53939      103.07422       75.72063
C         67.41819      102.42295       75.05267
C         67.87367      101.05904       74.55790
O         69.04816      100.74205       74.65908
C         66.85007      103.31538       73.92244
C         67.87670      103.64912       72.83472
O         66.37451      104.51890       74.46828
H         69.39125      103.19928       75.16670
H         66.59365      102.23889       75.77490
H         66.00793      102.78385       73.42081
H         65.51717      104.31050       74.92453
H         67.39559      104.26864       72.04853
H         68.72523      104.23130       73.25063
H         68.26520      102.72321       72.36256
N         66.97292      100.16645       74.06175
C         67.37097       98.81408       73.67459
C         68.28637       98.80658       72.44647
O         68.51663       99.84488       71.84035
C         66.12082       97.90801       73.46896
C         65.23426       98.32975       72.28948
O         65.36134       97.90475       74.65137
H         65.97994      100.43611       74.04541
H         67.92762       98.37166       74.52743
H         66.47525       96.87161       73.27249
H         64.83954       97.05945       74.66260
H         64.81472       99.34508       72.43709
H         65.80755       98.30913       71.34045
H         64.38727       97.61698       72.19361
N         68.78410       97.62047       71.99804
C         69.46562       97.41789       70.73165
C         70.69122       96.51090       70.87864
O         71.77333       96.93756       70.50861
C         68.41489       96.80709       69.79777
C         68.89586       96.53649       68.37567
C         67.70547       96.02820       67.55632
C         68.09959       95.69249       66.12010
N         66.93295       95.22693       65.37109
H         68.51466       96.78176       72.50401
H         69.77875       98.39329       70.29419
H         67.56746       97.52746       69.74739
H         68.03036       95.85956       70.23553
H         69.70296       95.77203       68.39264
H         69.28954       97.47356       67.92453
H         66.91461       96.81173       67.54221
H         67.29028       95.11483       68.03779
H         68.87668       94.89641       66.12899
H         68.51967       96.59671       65.62665
H         67.22307       94.98687       64.39661
H         66.52967       94.37527       65.82600
H         66.20718       95.97985       65.33470
N         70.58577       95.24011       71.37924
C         71.69608       94.29028       71.49882
C         71.36587       93.03351       70.72124
O         70.35517       92.40243       70.99862
C         71.95674       93.95447       72.98582
C         72.98606       92.82321       73.23686
C         74.33119       92.97115       72.55761
O         74.69794       92.11093       71.77316
O         75.16680       93.99247       72.83111
H         69.65920       94.91195       71.68040
H         72.63547       94.72513       71.09848
H         71.00975       93.63256       73.47008
H         72.27887       94.88034       73.49329
H         72.53344       91.86788       72.89048
H         73.14469       92.72620       74.33288
N         72.20467       92.58796       69.74735
C         71.94800       91.36812       69.01494
H         70.98928       91.45274       68.46174
H         72.76824       91.18347       68.28952
H         71.89759       90.50836       69.71767
H         73.06346       93.11585       69.53059
Ca        74.56640       95.70342       74.13255
O         75.56383       98.74215       73.29541
H         76.23030       99.35216       73.69956
H         75.71530       98.82694       72.32104
O         78.00803       97.58202       74.98345
H         78.69293       97.66264       74.27278
H         78.45050       97.05691       75.69639
O         74.62293       96.56903       71.16039
H         73.94177       96.71614       71.86196
H         74.51418       97.34288       70.55398
O         77.20860       94.28401       75.45797
H         77.31116       93.79061       74.60576
H         77.61274       93.68908       76.13840
O         77.36969       95.98831       72.40406
H         77.54058       96.85025       71.94807
H         77.46254       95.30722       71.69168

Ca 1.0



