%chk=apoCaM-CA-Ng.loop2.water3.frame182.chk
%nprocshared=20
%mem=10GB
%nosave
#b3lyp/svp scf=(tight,noincore,xqc) Test 
#IOP(5/87=12) Density=Current Pop=(MK,readradii) iop(6/33=2) iop(6/42=6)

apoCaM-CA-Ng.loop2.water3.frame182 

   -2  1 
C        100.10086       57.91601       27.85598
C        101.28664       58.60596       28.47115
O        102.41116       58.30016       28.10208
H         99.14331       58.32922       28.24123
H        100.11874       58.07641       26.75645
H        100.13189       56.82899       28.06947
N        101.10206       59.58995       29.39277
C        102.18548       60.42339       29.90834
C        103.17587       59.68396       30.83095
O        104.08582       60.34600       31.29801
C        101.55130       61.64233       30.64242
C        102.46710       62.82052       30.87425
O        101.98142       63.91521       31.49009
O        103.61729       62.82889       30.46533
H        100.13060       59.82569       29.65305
H        102.73018       60.82587       29.02572
H        101.11426       61.30405       31.60786
H        100.72444       62.04727       30.01779
N        103.05041       58.36025       31.18228
C        103.87490       57.66430       32.18844
C        105.37571       57.39496       31.82683
O        105.60007       56.29492       30.99489
C        103.77083       58.36984       33.54898
H        102.26065       57.82144       30.80128
H        103.42201       56.66448       32.36120
H        102.70274       58.47462       33.83936
H        104.28182       57.76617       34.32948
H        104.23349       59.37602       33.54025
N        106.10109       58.55400       31.29849
C        107.47283       58.25379       30.80647
C        107.72120       58.90613       29.45790
O        108.84400       58.83841       28.97587
C        108.54281       58.57279       31.86816
C        108.40898       57.64669       33.04890
O        108.16505       58.13896       34.27688
O        108.53070       56.44031       32.89804
H        106.12700       59.32361       32.00457
H        107.62170       57.18034       30.56081
H        108.45948       59.63307       32.18557
H        109.55632       58.41156       31.44165
N        106.68695       59.39606       28.70963
C        106.82252       59.78529       27.31496
C        107.40327       58.64245       26.50504
O        108.35274       58.86565       25.76724
H        105.73120       59.40547       29.09313
H        107.46349       60.68979       27.22159
H        105.81365       60.03488       26.92049
N        106.94715       57.36595       26.67699
C        107.59959       56.21467       26.05714
C        107.38753       56.20699       24.55415
O        106.25448       56.10514       24.10412
C        107.10814       54.88916       26.67786
C        107.41201       54.80798       28.15687
N        108.68621       54.86546       28.61548
O        106.49331       54.67579       28.94922
H        106.18509       57.20490       27.35445
H        108.68851       56.28378       26.26927
H        107.61730       54.03627       26.17974
H        106.01203       54.78438       26.51438
H        109.48160       54.96151       27.96817
H        108.88236       54.80908       29.62632
N        108.45618       56.33981       23.71776
C        108.34787       56.40001       22.27076
C        108.02659       55.06075       21.64848
O        108.80705       54.13303       21.80791
H        109.39358       56.47086       24.12683
H        109.33106       56.70613       21.85350
H        107.61051       57.18240       21.98903
N        106.90811       54.90457       20.88607
C        106.57489       53.67602       20.16214
C        105.35861       52.97854       20.76318
O        104.94526       51.95477       20.23685
C        106.38027       53.98710       18.64857
C        105.20641       54.93271       18.33125
O        107.57090       54.48879       18.09335
H        106.25737       55.70078       20.81590
H        107.40732       52.94244       20.23661
H        106.16106       53.02811       18.13027
H        107.72977       55.39152       18.47490
H        104.25270       54.50659       18.69847
H        105.35135       55.93670       18.78000
H        105.11965       55.06499       17.23184
N        104.75677       53.46215       21.88446
C        103.59962       52.86351       22.54133
C        103.96128       52.49513       23.97585
O        105.09538       52.71581       24.38269
C        102.39732       53.86267       22.47633
C        102.77207       55.26871       23.02731
C        101.87846       53.94107       21.03038
C        101.58351       56.21578       23.17188
H        105.14156       54.30505       22.32745
H        103.29370       51.91572       22.04551
H        101.56374       53.45561       23.08349
H        103.51245       55.76095       22.35992
H        103.22631       55.15832       24.03502
H        100.96826       54.56771       20.95795
H        102.65271       54.35434       20.35533
H        101.59987       52.92586       20.67341
H        100.83756       55.78629       23.87217
H        101.94089       57.18458       23.58175
H        101.10463       56.42229       22.19417
N        103.02459       51.96034       24.81630
C        103.27589       51.76235       26.23911
C        102.64362       50.46656       26.78280
O        102.70805       50.24688       27.98401
C        102.77673       53.03939       26.95014
C        103.28521       53.24396       28.34897
O        102.94404       54.37312       28.99557
O        104.04257       52.44857       28.88278
H        102.05735       51.85854       24.47794
H        104.37252       51.70744       26.42051
H        101.66702       53.07698       26.93063
H        103.16136       53.91850       26.38523
N        102.06158       49.53548       25.96351
C        101.50972       48.26920       26.45152
C        100.23959       48.50013       27.27165
O         99.32218       49.10675       26.73854
C        101.13988       47.34943       25.26566
C        100.67444       45.99812       25.75909
C        101.60661       45.04100       26.19749
C         99.30337       45.69531       25.81230
C        101.17154       43.80032       26.67517
C         98.87251       44.46012       26.30483
C         99.80540       43.51203       26.73268
H        102.06206       49.69205       24.94641
H        102.30264       47.75273       27.03103
H        102.00366       47.20457       24.58075
H        100.33757       47.84294       24.67375
H        102.66798       45.25425       26.16524
H         98.56802       46.42375       25.49480
H        101.89277       43.06372       27.00547
H         97.81435       44.23966       26.35801
H         99.46925       42.55513       27.11075
N        100.06472       47.99279       28.53192
C         98.84962       48.14194       29.32484
C         98.36833       49.56961       29.45783
O         97.17996       49.81465       29.30418
C         99.26018       47.60206       30.70221
C        100.20148       46.49023       30.31650
C        101.02929       47.15840       29.22194
H         98.04913       47.50253       28.88704
H         99.87316       48.35662       31.24760
H         98.40825       47.30471       31.35107
H        100.79571       46.04803       31.14330
H         99.58375       45.68453       29.85304
H        101.83678       47.80587       29.62645
H        101.44812       46.35043       28.59008
N         99.24580       50.56260       29.76563
C         98.82965       51.93645       30.02945
C         98.15466       52.59317       28.83370
O         97.42299       53.55149       29.04022
C        100.02494       52.79454       30.46426
C        100.70722       52.26744       31.74299
C        101.86980       53.14292       32.04404
O        101.69496       54.31859       32.32405
O        103.10595       52.70438       31.77014
H        100.24151       50.30984       29.84113
H         98.09788       51.91064       30.86703
H         99.68289       53.83856       30.64086
H        100.76375       52.81032       29.63011
H        101.09021       51.23971       31.58233
H        100.00969       52.25353       32.60502
N         98.36705       52.15545       27.56082
C         97.71522       52.72221       26.39717
H         97.00674       53.53556       26.66003
H         98.48041       53.12814       25.70338
H         97.14590       51.92358       25.87602
H         99.03018       51.39056       27.39541
Ca       104.38106       54.46534       31.36027
O        106.11932       51.11531       30.82768
H        105.59277       50.27797       30.78755
H        107.02608       50.85480       30.52665
O        104.94838       53.67054       34.21040
H        105.20794       54.62605       34.23405
H        104.59004       53.48522       35.11407
O        107.45690       53.18369       32.45933
H        108.17826       53.83123       32.26086
H        107.57842       52.96012       33.41622

Ca 1.0



