%chk=apoCaM-CA-Ng.loop1.water3.frame1365.chk
%nprocshared=20
%mem=10GB
%nosave
#b3lyp/svp scf=(tight,noincore,xqc) Test 
#IOP(5/87=12) Density=Current Pop=(MK,readradii) iop(6/33=2) iop(6/42=6)

apoCaM-CA-Ng.loop1.water3.frame1365 

   0  1 
C         -6.83895       41.74885       69.42058
C         -8.19512       42.03906       68.85207
O         -8.31108       42.13045       67.63791
H         -6.13837       42.56231       69.13372
H         -6.86837       41.68421       70.52808
H         -6.46509       40.78662       69.01406
N         -9.26721       42.23282       69.67368
C        -10.59351       42.58107       69.17831
C        -10.87854       44.00773       69.58588
O        -11.86956       44.29672       70.24395
C        -11.64017       41.58329       69.70536
C        -11.30080       40.17284       69.31563
O        -11.22141       39.85875       68.13876
O        -11.07758       39.24804       70.26911
H         -9.13029       42.18624       70.69536
H        -10.61727       42.56031       68.06865
H        -12.64241       41.84047       69.29837
H        -11.68390       41.64936       70.81495
N         -9.97520       44.96012       69.23460
C        -10.08931       46.36089       69.60465
C        -11.26350       46.99217       68.87342
O        -12.12213       47.53809       69.55055
C         -8.75864       47.13865       69.41336
C         -7.58454       46.38763       70.08092
C         -6.28544       47.19237       70.13089
C         -5.13314       46.27556       70.57955
N         -3.88523       47.01826       70.73358
H         -9.15001       44.64941       68.70621
H        -10.26967       46.40936       70.70403
H         -8.88417       48.13732       69.88796
H         -8.50779       47.30518       68.34684
H         -7.37939       45.46501       69.50254
H         -7.85236       46.09874       71.12150
H         -6.41425       48.03859       70.84093
H         -6.04323       47.59738       69.12481
H         -4.99214       45.47879       69.81300
H         -5.38407       45.78342       71.54566
H         -3.97777       47.70233       71.51892
H         -3.11716       46.34525       70.96015
H         -3.64724       47.51982       69.84770
N        -11.45654       46.90854       67.51836
C        -10.57784       46.23740       66.55592
C        -11.20095       44.92510       66.09403
O        -12.29673       44.58475       66.52280
C        -10.23756       47.19360       65.39252
C        -11.47286       47.58486       64.64948
O        -12.17806       46.66193       63.97463
O        -11.88985       48.72900       64.72028
H        -12.33884       47.30054       67.15142
H         -9.61670       45.96841       67.01419
H         -9.51678       46.73754       64.68162
H         -9.75998       48.10066       65.82455
N        -10.50988       44.10427       65.25760
C        -10.95555       42.77354       64.87615
C        -12.19878       42.73527       64.01367
O        -12.76928       43.76457       63.69164
H         -9.57712       44.40016       64.93222
H        -11.12539       42.16557       65.78923
H        -10.14283       42.29197       64.29100
N        -12.62292       41.51678       63.56348
C        -13.75175       41.29366       62.64897
C        -13.63254       39.90176       61.98123
O        -12.85373       39.08625       62.45127
C        -15.09988       41.37959       63.41530
C        -15.41648       42.73541       63.96810
O        -15.56570       43.68815       63.21855
O        -15.58670       42.89410       65.29386
H        -12.03546       40.71755       63.83789
H        -13.68133       42.05110       61.84500
H        -15.08358       40.63681       64.24184
H        -15.95359       41.11638       62.77392
N        -14.34122       39.52147       60.86964
C        -15.25352       40.35913       60.11315
C        -14.55810       41.52584       59.46179
O        -13.33854       41.53708       59.35921
H        -14.20520       38.55909       60.52084
H        -16.07839       40.70755       60.75218
H        -15.73303       39.76703       59.30315
N        -15.30077       42.56654       59.00464
C        -14.72866       43.74581       58.36799
C        -13.74169       44.44678       59.29303
O        -14.04819       44.63880       60.46016
C        -15.85256       44.70620       57.91145
C        -15.30262       45.84962       57.05810
O        -16.54104       45.24355       59.01219
H        -16.32473       42.51214       59.12428
H        -14.20159       43.41492       57.44586
H        -16.55551       44.14259       57.25240
H        -17.31427       44.65209       59.20184
H        -16.14344       46.47464       56.69420
H        -14.60574       46.48657       57.64306
H        -14.76399       45.44330       56.17489
N        -12.54168       44.87515       58.80025
C        -11.49061       45.55747       59.55407
C        -11.99955       46.86537       60.15218
O        -12.77523       46.83374       61.09436
C        -10.82521       44.60458       60.59790
C        -10.26768       43.35494       59.85949
C         -9.70725       45.33114       61.37414
C         -9.62721       42.30465       60.76750
H        -12.35341       44.72137       57.79800
H        -10.69437       45.81960       58.82115
H        -11.59015       44.27537       61.33277
H         -9.51819       43.66859       59.09993
H        -11.09921       42.85046       59.32671
H        -10.10810       46.21446       61.91233
H         -9.26705       44.67262       62.15032
H         -8.90357       45.66596       60.68432
H         -9.31609       41.43474       60.14996
H         -8.71703       42.69863       61.26263
H        -10.35225       41.95638       61.53198
N        -11.56794       48.06283       59.65663
C        -11.96981       49.35891       60.19599
C        -12.66609       50.18685       59.11970
O        -12.22383       51.27924       58.79586
C        -10.74267       50.06627       60.83469
C         -9.58720       50.35096       59.86522
O        -10.24014       49.26462       61.87191
H        -10.91311       48.05888       58.86172
H        -12.71063       49.23008       61.01852
H        -11.07427       51.05128       61.24564
H        -10.70953       49.53758       62.69954
H         -8.76928       50.86178       60.41459
H         -9.18127       49.41059       59.44178
H         -9.88741       51.01507       59.03334
N        -13.82225       49.73530       58.56294
C        -14.59433       50.48304       57.57395
C        -15.78980       51.03998       58.32371
O        -16.87421       50.47687       58.27908
C        -14.92454       49.55127       56.38624
C        -15.59816       50.30366       55.23613
O        -13.72977       48.98235       55.91131
H        -14.21334       48.84491       58.90552
H        -14.01196       51.34164       57.17084
H        -15.60120       48.74895       56.75683
H        -13.96704       48.11740       55.48473
H        -14.92012       51.09569       54.85032
H        -15.81573       49.59697       54.40666
H        -16.55010       50.76719       55.56479
N        -15.56018       52.06727       59.19554
C        -16.41571       52.46790       60.30969
C        -16.47105       51.34379       61.32871
O        -16.01968       50.24569       61.03478
C        -17.85379       52.88465       59.93309
C        -17.96439       54.02740       58.91697
C        -19.39246       54.61859       58.88091
C        -20.50153       53.59863       58.56139
N        -21.81828       54.23761       58.58367
H        -14.63671       52.52640       59.16126
H        -15.91756       53.33164       60.80562
H        -18.34267       53.22495       60.87163
H        -18.41617       52.00543       59.55701
H        -17.65561       53.66436       57.91286
H        -17.28428       54.85411       59.21648
H        -19.41813       55.43525       58.12740
H        -19.60905       55.06696       59.87602
H        -20.50458       52.78746       59.32065
H        -20.32146       53.14731       57.56171
H        -22.00188       54.64953       59.52825
H        -21.87089       54.98699       57.85677
H        -22.55249       53.51925       58.38708
N        -17.01558       51.53966       62.56230
C        -17.17081       50.43677       63.50075
C        -15.82641       49.74122       63.80511
O        -16.12745       48.45532       64.25549
C        -17.85839       50.86394       64.81378
C        -19.30137       51.32596       64.61067
C        -19.90152       51.70335       65.93347
O        -19.36780       52.70857       66.65452
O        -20.86899       51.09802       66.36554
H        -17.35048       52.48018       62.81785
H        -17.81459       49.67944       62.99727
H        -17.26543       51.67199       65.29626
H        -17.88106       49.98933       65.50205
H        -19.88402       50.49569       64.15363
H        -19.34639       52.20443       63.93512
N        -15.01009       50.43498       64.81483
C        -14.40415       51.66525       64.30719
H        -13.78790       51.46532       63.40401
H        -15.17839       52.42592       64.08707
H        -13.75002       52.09627       65.09580
H        -14.22555       49.79821       65.08427
Ca       -14.31747       47.21713       63.75610
O        -15.42769       47.43853       60.79390
H        -15.85420       46.60219       61.10325
H        -16.04387       47.79623       60.10777
O        -17.72832       46.34738       62.93792
H        -18.35240       45.60639       62.73593
H        -18.00772       47.08042       62.33326
O        -15.82064       45.97596       66.04397
H        -16.67829       45.53760       65.81502
H        -15.13487       45.44444       65.56735

Ca 1.0



