%chk=apoCaM-CA-Ng.loop3.water4.frame9.chk
%nprocshared=20
%mem=10GB
%nosave
#b3lyp/svp scf=(tight,noincore,xqc) Test 
#IOP(5/87=12) Density=Current Pop=(MK,readradii) iop(6/33=2) iop(6/42=6)

apoCaM-CA-Ng.loop3.water4.frame9 

   0  1 
C         79.81460       32.27936       95.95750
C         80.94424       31.46855       96.52286
O         80.87513       30.25040       96.47093
H         78.87348       32.04825       96.49666
H         80.01545       33.36893       96.03618
H         79.69091       32.02874       94.88210
N         82.03590       32.08589       97.05763
C         83.22936       31.39480       97.53840
C         82.96436       30.50070       98.74775
O         83.70009       29.54070       98.93812
C         83.91418       30.62156       96.38395
C         84.17982       31.51741       95.20557
O         83.65987       31.28161       94.12646
O         84.98463       32.58890       95.33599
H         82.05236       33.11730       97.08644
H         83.95027       32.17097       97.88146
H         83.27242       29.77324       96.06301
H         84.88188       30.19757       96.72835
N         81.99298       30.79640       99.66456
C         81.80639       29.99755      100.88130
C         81.35504       28.56781      100.60053
O         81.35121       27.75604      101.51582
C         80.78471       30.66600      101.83371
C         79.32738       30.58338      101.32675
C         78.36809       31.31577      102.27339
C         76.88505       31.10587      101.91533
N         76.55092       31.58203      100.57216
H         81.41346       31.63660       99.51898
H         82.79066       29.97564      101.39982
H         81.08211       31.72644      101.98471
H         80.82930       30.15659      102.82183
H         79.02035       29.51548      101.27688
H         79.25447       31.02228      100.31050
H         78.60915       32.40082      102.26979
H         78.51222       30.92940      103.30624
H         76.27111       31.66012      102.65958
H         76.62739       30.02637      101.99933
H         76.82220       32.58579      100.46425
H         77.02647       30.99924       99.84682
H         75.51874       31.49210      100.43032
N         80.85052       28.22859       99.38390
C         80.24563       26.94033       99.08521
C         81.27931       25.83104       99.14352
O         82.39602       26.03284       98.69076
C         79.60536       27.01684       97.67479
C         78.66858       25.89213       97.32568
O         78.36305       24.92525       98.21034
O         78.12578       25.89180       96.23304
H         80.81493       28.94800       98.65121
H         79.42324       26.75984       99.81328
H         80.40884       27.09104       96.90892
H         78.98586       27.93899       97.61761
N         80.94058       24.60009       99.61412
C         81.79881       23.43140       99.51290
C         82.14146       23.12602       98.06934
O         83.29016       22.81363       97.78847
H         79.99758       24.45577      100.00307
H         81.24019       22.55949       99.91621
H         82.72339       23.55558      100.11828
N         81.19196       23.23112       97.09125
C         81.44764       22.93487       95.68095
C         82.60421       23.75309       95.10628
O         83.17372       23.33249       94.10879
C         80.17801       23.14644       94.82516
C         78.98102       22.39153       95.35660
N         78.99345       21.04427       95.46889
O         77.98553       23.01198       95.69545
H         80.24746       23.52443       97.36970
H         81.74486       21.86415       95.63484
H         80.36903       22.82397       93.78188
H         79.93675       24.23343       94.80909
H         79.81946       20.49767       95.18907
H         78.17006       20.54630       95.83966
N         83.04163       24.89462       95.71516
C         84.26357       25.59060       95.35394
C         84.21551       26.13501       93.95675
O         83.41403       27.01890       93.69028
H         82.51827       25.26094       96.51215
H         85.10896       24.87937       95.47445
H         84.44037       26.43646       96.05336
N         85.07350       25.64264       93.01742
C         85.13807       26.02230       91.60914
C         83.99365       25.46647       90.77289
O         84.23456       25.24067       89.59687
C         85.34813       27.53139       91.38671
C         86.51492       28.06152       92.18582
C         87.82165       27.59573       91.95725
C         86.29888       29.03247       93.17616
C         88.88970       28.09285       92.71185
C         87.36546       29.52772       93.92910
C         88.66624       29.05852       93.69960
O         89.70503       29.52703       94.41998
H         85.76021       24.93499       93.32211
H         86.04060       25.50413       91.20975
H         84.41813       28.06792       91.66697
H         85.52553       27.73174       90.30740
H         88.01580       26.84972       91.19708
H         85.30201       29.40197       93.36888
H         89.89218       27.72652       92.52895
H         87.17806       30.27438       94.69044
H         89.59072       30.19408       95.11209
N         82.74282       25.22474       91.28224
C         81.64320       24.55661       90.59690
C         81.86615       23.04839       90.71429
O         81.02494       22.39625       91.31634
C         81.30929       25.10904       89.16768
C         80.89904       26.61326       89.14309
C         80.11312       24.33822       88.57217
C         81.94552       27.62648       89.59955
H         82.52834       25.47321       92.24810
H         80.72115       24.75104       91.19589
H         82.16765       24.94907       88.48556
H         79.98337       26.76459       89.75633
H         80.65147       26.87932       88.09096
H         79.20309       24.47669       89.19461
H         79.89696       24.69162       87.54098
H         80.30771       23.25998       88.50444
H         82.87782       27.52218       89.00729
H         81.54615       28.65130       89.44441
H         82.15515       27.53267       90.68115
N         82.99643       22.42687       90.25742
C         83.25158       21.00455       90.49930
C         82.28569       20.10107       89.74755
O         82.23295       18.91633       90.04856
C         84.69992       20.62586       90.14515
O         84.92728       20.70505       88.76226
H         83.72124       22.98161       89.79563
H         83.12699       20.83709       91.59394
H         84.89707       19.58093       90.46752
H         85.42170       21.26743       90.70151
H         85.06184       21.66177       88.54083
N         81.48666       20.59852       88.76147
C         80.46303       19.85449       88.04607
C         79.44736       19.28664       89.02455
O         79.13624       18.10570       88.98205
C         81.09522       18.80619       87.12427
H         81.58508       21.58441       88.50223
H         79.92474       20.57788       87.39304
H         81.65111       18.04075       87.70297
H         80.30895       18.30616       86.52120
H         81.80226       19.30778       86.42802
N         78.93281       20.10664       89.98224
C         77.99873       19.68821       91.01696
C         76.85781       20.67200       91.08991
O         77.11510       21.86739       91.09233
C         78.70851       19.67846       92.37001
H         79.27216       21.07879       90.01715
H         77.62467       18.65422       90.84806
H         79.54867       18.95316       92.35198
H         79.10230       20.68492       92.62287
H         77.99397       19.36164       93.16230
N         75.57080       20.24051       91.21924
C         74.43387       21.14307       91.36792
C         74.28556       21.96187       90.10178
O         74.30943       23.18552       90.14562
C         74.57034       22.01159       92.65059
C         74.71830       21.14400       93.91263
C         74.94663       21.95280       95.15986
O         75.03046       23.29669       95.11903
O         75.09146       21.37844       96.22688
H         75.38369       19.22713       91.24371
H         73.51027       20.53146       91.47595
H         73.67320       22.66007       92.75756
H         75.45171       22.68086       92.57314
H         75.59356       20.46893       93.80063
H         73.80369       20.52693       94.04025
N         74.15021       21.31966       88.91017
C         74.04861       22.02775       87.65486
H         74.95888       22.64461       87.49615
H         73.96464       21.30052       86.81928
H         73.14987       22.67903       87.65667
H         74.13580       20.28790       88.89102
Ca        75.53886       24.40967       97.01412
O         76.77516       22.11002       98.90212
H         76.24916       21.62540       99.58702
H         77.61593       21.59355       98.82071
O         74.76941       27.19719       97.64766
H         75.15794       27.58314       96.82272
H         73.87412       26.87470       97.37317
O         75.84095       24.85682      100.06690
H         75.08289       24.55623      100.62825
H         75.83643       25.84356      100.14752
O         72.84265       23.91860       98.13567
H         72.81017       22.95415       98.35705
H         72.93117       24.37277       99.01102

Ca 1.0



