%chk=apoCaM-CA-Ng.loop2.water5.frame1094.chk
%nprocshared=20
%mem=10GB
%nosave
#b3lyp/svp scf=(tight,noincore,xqc) Test 
#IOP(5/87=12) Density=Current Pop=(MK,readradii) iop(6/33=2) iop(6/42=6)

apoCaM-CA-Ng.loop2.water5.frame1094 

   -2  1 
C         39.23400       66.35773       63.45145
C         39.60775       64.89968       63.32610
O         40.76740       64.65581       63.02642
H         38.18208       66.57693       63.68805
H         39.86020       66.83000       64.23572
H         39.44598       66.85713       62.48209
N         38.74600       63.84967       63.48653
C         37.33022       63.92533       63.84259
C         36.47572       63.55726       62.64192
O         37.02007       63.27822       61.58198
C         37.02754       63.07575       65.10383
C         37.25945       61.59593       64.94799
O         38.49786       61.11326       64.74141
O         36.32746       60.81717       65.06890
H         39.12967       62.91265       63.29480
H         37.03389       64.94992       64.10994
H         35.96650       63.23454       65.39298
H         37.64714       63.44272       65.95047
N         35.11241       63.58961       62.72965
C         34.18995       63.38881       61.61313
C         34.22342       62.00221       60.98489
O         33.42954       61.77441       60.08164
C         34.41238       64.47158       60.54683
H         34.68573       63.83264       63.63549
H         33.15792       63.52562       62.00627
H         33.64552       64.39351       59.74761
H         34.32797       65.47642       61.01194
H         35.41134       64.38100       60.07320
N         35.08868       61.02838       61.38593
C         35.13315       59.70622       60.78435
C         34.90325       58.62706       61.82077
O         35.20389       58.81780       62.98903
C         36.44000       59.51000       59.96651
C         37.70127       60.17102       60.49778
O         38.22575       61.03571       59.81251
O         38.29453       59.86164       61.66987
H         35.75764       61.20647       62.14368
H         34.30713       59.57526       60.05005
H         36.25351       59.99957       58.98338
H         36.61390       58.43903       59.74114
N         34.37103       57.43667       61.42609
C         34.24211       56.27270       62.28422
C         35.19219       55.17797       61.82755
O         35.18235       54.10943       62.42049
H         34.10030       57.31741       60.43678
H         33.19038       55.91516       62.25121
H         34.48660       56.51501       63.34013
N         36.08286       55.39823       60.81339
C         37.09036       54.44818       60.37109
C         38.00765       55.14247       59.37607
O         37.53104       55.65456       58.37093
C         36.47547       53.20372       59.70696
C         37.57507       52.22535       59.36134
N         37.86226       51.92575       58.07400
O         38.23279       51.71989       60.25942
H         36.10136       56.31906       60.36172
H         37.67828       54.13155       61.26165
H         35.91968       53.51588       58.79537
H         35.75869       52.69524       60.38388
H         37.33836       52.35809       57.29987
H         38.63112       51.27629       57.85044
N         39.34194       55.20771       59.61283
C         40.27754       55.91264       58.75689
C         40.39646       55.31117       57.36155
O         39.65468       54.39453       57.03840
H         39.71753       54.76024       60.46254
H         41.25895       55.86736       59.25925
H         39.98515       56.98222       58.68824
N         41.32672       55.74831       56.45898
C         42.34944       56.74282       56.76591
C         42.73168       57.51313       55.51564
O         43.18776       56.89782       54.56137
C         43.62670       56.05281       57.31798
C         44.62686       57.09960       57.82680
O         43.30520       55.18822       58.37355
H         41.37181       55.26691       55.54646
H         41.96357       57.45059       57.53015
H         44.08300       55.45165       56.49593
H         44.06729       54.56107       58.47987
H         44.16862       57.68979       58.65069
H         45.53641       56.59711       58.21432
H         44.93024       57.79373       57.01646
N         42.62191       58.86921       55.46571
C         43.11407       59.64315       54.33053
C         44.64902       59.57121       54.33086
O         45.22910       60.09236       55.27414
C         42.63996       61.12853       54.41981
C         41.08814       61.19224       54.37342
C         43.25029       61.96974       53.27493
C         40.52036       62.58037       54.66904
H         42.21092       59.36077       56.27346
H         42.64753       59.25158       53.40984
H         42.99048       61.54901       55.38884
H         40.65555       60.51759       55.13972
H         40.72850       60.84307       53.38202
H         42.95556       63.03469       53.35173
H         44.35907       61.95711       53.31595
H         42.93357       61.57453       52.28624
H         40.84382       62.91262       55.67850
H         40.83380       63.32789       53.91478
H         39.41114       62.53055       54.65449
N         45.41061       59.00641       53.34271
C         44.90423       58.25731       52.19617
C         44.95385       59.08159       50.92882
O         45.55934       60.14346       50.90893
C         45.61395       56.88746       52.07377
C         47.10242       56.93388       51.81259
O         47.76019       58.09819       51.64833
O         47.72596       55.88689       51.74316
H         46.43181       59.11952       53.42471
H         43.84234       58.01860       52.34031
H         45.14415       56.30366       51.25333
H         45.45143       56.33191       53.02313
N         44.21359       58.68333       49.85443
C         44.07433       59.48777       48.64772
C         42.98132       58.89359       47.76102
O         43.11362       57.72984       47.41007
C         45.38912       59.52058       47.83595
C         45.27152       60.55533       46.74418
C         45.04004       60.18543       45.40884
C         45.36115       61.91812       47.07601
C         44.88971       61.16964       44.42515
C         45.22643       62.89604       46.08883
C         44.98581       62.52282       44.76465
H         43.65666       57.82009       49.94641
H         43.81479       60.52018       48.95603
H         45.57701       58.50650       47.41719
H         46.27327       59.77434       48.45767
H         44.95102       59.14192       45.13391
H         45.53999       62.21995       48.10099
H         44.69391       60.88475       43.39969
H         45.30324       63.94275       46.35327
H         44.87154       63.28310       44.00307
N         41.89934       59.60700       47.30844
C         41.63483       61.02342       47.52916
C         41.27319       61.38028       48.95740
O         41.35538       60.53424       49.83729
C         40.44356       61.31604       46.59905
C         40.64696       60.30330       45.49285
C         40.98814       59.07291       46.31615
H         42.51099       61.60955       47.17580
H         39.49139       61.03611       47.10576
H         40.36615       62.37391       46.26752
H         39.77511       60.17844       44.81688
H         41.54061       60.59712       44.89525
H         40.07289       58.70776       46.83626
H         41.41385       58.26266       45.68745
N         40.81649       62.63381       49.23377
C         40.38002       63.09203       50.55115
C         40.02747       64.57914       50.47968
O         38.89806       64.94471       50.77274
C         39.21083       62.21305       51.08946
C         38.01844       62.07137       50.12559
C         37.02135       61.08629       50.66837
O         36.76433       60.06810       50.04501
O         36.41245       61.31492       51.84745
H         40.76219       63.30213       48.44844
H         41.21756       63.00032       51.27377
H         38.86584       62.61003       52.06925
H         39.59665       61.19385       51.28582
H         38.37793       61.69997       49.14351
H         37.51379       63.04489       49.96411
N         40.93202       65.52824       50.09223
C         42.31943       65.27876       49.74505
H         42.97455       65.88708       50.40154
H         42.62526       64.22282       49.86463
H         42.49351       65.57663       48.68956
H         40.61611       66.50912       50.03886
Ca        37.83768       58.40929       63.32573
O         40.23791       56.89858       65.33809
H         39.87036       56.64046       66.22012
H         40.37706       56.03724       64.87073
O         38.23339       58.86732       66.88077
H         38.57462       58.32912       67.63826
H         38.19681       59.79188       67.23273
O         37.00816       56.10085       64.76158
H         36.26400       55.45084       64.72148
H         37.57382       55.78722       65.51002
O         39.67673       56.68655       62.13830
H         40.55894       56.31639       62.38882
H         39.88398       57.43378       61.52255
O         40.95427       60.08648       63.54095
H         40.90795       60.50476       62.64464
H         41.21720       59.14833       63.36572

Ca 1.0



