%chk=apoCaM-CA-Ng.loop2.water4.frame1389.chk
%nprocshared=20
%mem=10GB
%nosave
#b3lyp/svp scf=(tight,noincore,xqc) Test 
#IOP(5/87=12) Density=Current Pop=(MK,readradii) iop(6/33=2) iop(6/42=6)

apoCaM-CA-Ng.loop2.water4.frame1389 

   -2  1 
C         11.18857       78.91394       51.91053
C         11.36772       77.67318       52.74332
O         12.27489       76.92037       52.41848
H         10.38669       79.59325       52.23599
H         12.13720       79.49215       51.93683
H         10.98656       78.61864       50.86012
N         10.61829       77.34683       53.83783
C          9.48673       78.08415       54.40977
C          8.24218       77.19794       54.53969
O          7.24792       77.67497       55.06919
C          9.91376       78.64623       55.78894
C         10.43162       77.55125       56.67361
O          9.70809       76.61767       56.98249
O         11.74297       77.50127       56.97354
H         10.90368       76.48828       54.33700
H          9.18933       78.94843       53.79276
H          9.07590       79.18532       56.28204
H         10.73420       79.37700       55.61869
N          8.21535       75.91139       54.07877
C          7.07267       75.01348       54.21189
C          7.46605       73.70182       54.89904
O          6.65212       72.78812       54.90546
C          6.54644       74.71623       52.80106
H          9.03098       75.53284       53.57669
H          6.24099       75.48160       54.78258
H          6.24943       75.66297       52.30086
H          7.32743       74.21850       52.18629
H          5.65195       74.05831       52.84508
N          8.70143       73.51846       55.46012
C          9.20820       72.21500       55.89990
C          9.57069       72.16696       57.37916
O          9.53919       73.18066       58.06332
C         10.46427       71.88138       55.04900
C         11.51007       72.96224       55.20068
O         11.80681       73.66612       54.24841
O         12.00513       73.24884       56.42010
H          9.34736       74.31731       55.51476
H          8.44204       71.42731       55.73081
H         10.15642       71.82118       53.98181
H         10.89637       70.89962       55.33332
N          9.94997       70.97147       57.92100
C         10.43980       70.79212       59.27896
C         11.91751       71.11387       59.38618
O         12.51451       71.54463       58.41155
H          9.89541       70.12612       57.33244
H         10.35074       69.71353       59.53259
H          9.82106       71.36057       60.00637
N         12.58702       70.87538       60.55119
C         14.02454       71.10859       60.71652
C         14.76367       69.80973       61.03144
O         14.13214       68.77253       61.18262
C         14.27985       72.20155       61.78282
C         13.81201       71.84449       63.17712
N         14.69420       71.76202       64.20036
O         12.62536       71.65281       63.39376
H         12.05276       70.48995       61.34329
H         14.45708       71.49039       59.76609
H         13.77249       73.13866       61.46873
H         15.36735       72.42441       61.80690
H         15.69960       71.92893       64.05029
H         14.36918       71.53168       65.15123
N         16.12690       69.80109       61.12960
C         16.91649       68.61022       61.42598
C         16.87193       67.56925       60.31764
O         16.19550       67.79252       59.32364
H         16.63930       70.68737       61.00952
H         16.56533       68.17094       62.38436
H         17.97821       68.91750       61.54459
N         17.56944       66.39191       60.38155
C         18.42097       65.97180       61.49645
C         19.88327       65.75923       61.07683
O         20.69047       65.47195       61.95013
C         17.85727       64.66754       62.11579
C         16.42934       64.84803       62.64142
O         17.86858       63.64185       61.15511
H         17.47095       65.73779       59.58855
H         18.43403       66.74610       62.28976
H         18.50894       64.39062       62.97890
H         17.97639       62.78392       61.64331
H         16.39883       65.64555       63.41290
H         15.73381       65.11212       61.81656
H         16.07788       63.89926       63.10072
N         20.30192       65.87475       59.77907
C         21.68219       65.68064       59.32013
C         22.18480       67.02350       58.78060
O         21.48166       67.61055       57.97022
C         21.74134       64.56121       58.21855
C         21.73719       63.11851       58.79904
C         23.01370       64.66867       57.34818
C         20.52584       62.72567       59.63028
H         19.61759       66.13482       59.05559
H         22.32608       65.35469       60.15282
H         20.88232       64.69527       57.52359
H         22.64691       62.96784       59.42306
H         21.78636       62.40127       57.94995
H         23.01534       63.88099       56.56431
H         23.04875       65.63547       56.81098
H         23.93217       64.56564       57.96244
H         20.48917       63.30713       60.56491
H         19.59161       62.85574       59.04712
H         20.62228       61.65857       59.92501
N         23.37816       67.59752       59.14063
C         24.38872       67.00168       60.01184
C         25.80627       67.30306       59.51877
O         26.18867       68.46083       59.43283
C         24.14758       67.42251       61.47749
C         24.06590       68.90955       61.70484
O         25.02910       69.63040       61.50580
O         22.92237       69.44914       62.16907
H         23.59454       68.52584       58.74480
H         24.30799       65.89981       59.99744
H         24.93763       66.98656       62.12688
H         23.17662       66.98491       61.79537
N         26.64922       66.27601       59.19681
C         28.05171       66.43551       58.82084
C         28.29762       65.85762       57.42750
O         27.94782       64.70341       57.21393
C         28.93378       65.64920       59.82430
C         30.39081       65.62893       59.40120
C         30.92700       64.46271       58.82406
C         31.21056       66.76306       59.53423
C         32.24816       64.43609       58.37303
C         32.53986       66.72729       59.09253
C         33.05522       65.56681       58.50742
H         26.29257       65.30957       59.25594
H         28.34890       67.49996       58.87130
H         28.55600       64.60316       59.84483
H         28.83646       66.04393       60.85918
H         30.31290       63.58003       58.69689
H         30.82237       67.67228       59.97540
H         32.64252       63.53916       57.91265
H         33.17068       67.60078       59.19542
H         34.07867       65.54257       58.15518
N         28.98958       66.53482       56.45719
C         29.52993       67.87787       56.58725
C         28.49438       68.94204       56.26680
O         28.79263       70.10908       56.47850
C         30.66630       67.88374       55.55992
C         30.07187       67.05045       54.43896
C         29.41198       65.91338       55.21631
H         29.97504       68.07003       57.58149
H         31.04008       68.88934       55.26996
H         31.51957       67.30195       55.98021
H         29.27529       67.66010       53.95694
H         30.78281       66.71764       53.65366
H         28.57122       65.47935       54.63377
H         30.15216       65.12064       55.46745
N         27.29291       68.63189       55.69232
C         26.31635       69.64187       55.29769
C         26.96553       70.62857       54.33130
O         27.41661       70.19827       53.27872
C         25.10731       68.99391       54.58324
C         24.28199       68.06435       55.48369
C         23.16814       67.43460       54.69504
O         23.42199       66.70207       53.75144
O         21.88484       67.66409       55.03029
H         27.08424       67.64708       55.47847
H         25.94961       70.15477       56.20951
H         25.47797       68.42354       53.70156
H         24.43015       69.79833       54.21769
H         23.85897       68.65735       56.32163
H         24.90655       67.25174       55.90918
N         27.07590       71.96246       54.59331
C         26.59276       72.59242       55.80327
H         25.49474       72.45488       55.89413
H         27.10346       72.16431       56.69131
H         26.80907       73.68123       55.77285
H         27.53378       72.56540       53.89217
Ca        12.49579       75.39087       56.87478
O         15.06703       74.61034       58.34461
H         15.03178       74.26853       59.27297
H         14.72067       73.86455       57.79279
O         11.03239       74.14562       61.04292
H         11.27537       73.32692       61.54255
H         10.25767       74.51140       61.53855
O         12.75999       77.04246       60.10390
H         12.39694       77.91327       60.40490
H         13.74150       77.17332       60.09272
O          9.36038       76.60698       59.84549
H          9.23337       77.56636       59.63601
H          8.81701       76.45578       60.65871

Ca 1.0



