%chk=apoCaM-CA-Ng.loop3.water3.frame700.chk
%nprocshared=20
%mem=10GB
%nosave
#b3lyp/svp scf=(tight,noincore,xqc) Test 
#IOP(5/87=12) Density=Current Pop=(MK,readradii) iop(6/33=2) iop(6/42=6)

apoCaM-CA-Ng.loop3.water3.frame700 

   0  1 
C         93.01455       91.49749      -18.43989
C         93.82970       90.63680      -19.35554
O         94.41208       91.15539      -20.29820
H         91.96113       91.15012      -18.43725
H         93.42676       91.43447      -17.41082
H         93.04408       92.55853      -18.76939
N         93.93477       89.29754      -19.12232
C         94.76115       88.42767      -19.94894
C         94.21799       88.40405      -21.37094
O         93.10034       87.94935      -21.57437
C         94.85020       87.01978      -19.32089
C         95.90961       86.14659      -19.93518
O         96.10394       85.02986      -19.48262
O         96.68744       86.59687      -20.93709
H         93.44561       88.90325      -18.30341
H         95.77869       88.85177      -19.93094
H         93.85979       86.51850      -19.36670
H         95.13230       87.13511      -18.25080
N         94.93191       88.96331      -22.39223
C         94.38913       89.13645      -23.74003
C         94.15804       87.81903      -24.47281
O         93.43510       87.82623      -25.45863
C         95.30187       90.09367      -24.54104
C         94.75824       90.47159      -25.93072
C         95.55968       91.59932      -26.60154
C         97.02940       91.23814      -26.86906
N         97.71503       92.33627      -27.54995
H         95.85211       89.37357      -22.17160
H         93.40206       89.63865      -23.62263
H         96.31014       89.63762      -24.63717
H         95.39292       91.02981      -23.94626
H         93.71360       90.83508      -25.81679
H         94.75352       89.58470      -26.59843
H         95.51330       92.50921      -25.96396
H         95.06900       91.83291      -27.57169
H         97.07893       90.32486      -27.50225
H         97.55384       91.03365      -25.91123
H         97.26122       92.52721      -28.47273
H         97.68721       93.19892      -26.95867
H         98.71305       92.07020      -27.71184
N         94.72405       86.65280      -24.05352
C         94.46990       85.36275      -24.68653
C         93.76152       84.45934      -23.68716
O         92.67479       83.99023      -23.99999
C         95.75249       84.81283      -25.35665
C         96.97725       84.68248      -24.49784
O         97.03559       83.76743      -23.52253
O         97.96574       85.35627      -24.74061
H         95.36062       86.67127      -23.24609
H         93.76393       85.47391      -25.54061
H         96.00477       85.52658      -26.17316
H         95.53822       83.83181      -25.83253
N         94.24875       84.26587      -22.42972
C         93.51383       83.58316      -21.37383
C         94.28135       82.43735      -20.75603
O         93.82685       81.92059      -19.74757
H         95.14633       84.69505      -22.16999
H         92.52502       83.20765      -21.71624
H         93.32620       84.33129      -20.57439
N         95.43678       81.97169      -21.30939
C         96.22774       80.88580      -20.74825
C         97.66700       81.33080      -20.51810
O         98.03664       82.44296      -20.86268
C         96.19380       79.69718      -21.73116
C         94.79180       79.17743      -21.92860
N         94.10387       78.63800      -20.89516
O         94.27604       79.23525      -23.03494
H         95.75893       82.36686      -22.19438
H         95.81775       80.56544      -19.76664
H         96.81864       78.85717      -21.36330
H         96.60976       80.03140      -22.70867
H         94.52739       78.56796      -19.95849
H         93.14756       78.27928      -21.03284
N         98.54007       80.46844      -19.92747
C         99.95330       80.73327      -19.71859
C        100.22121       81.91386      -18.81326
O         99.60461       82.02368      -17.76309
H         98.19087       79.54745      -19.62533
H        100.46570       80.85944      -20.69767
H        100.39432       79.83889      -19.22893
N        101.22544       82.78311      -19.12242
C        101.63551       83.89160      -18.26083
C        100.61617       85.02069      -18.26344
O         99.58927       84.90809      -18.91499
C        103.04527       84.38462      -18.68834
C        104.09716       83.33629      -18.38914
C        104.85314       82.74722      -19.41588
C        104.33717       82.94772      -17.05668
C        105.82185       81.78101      -19.11378
C        105.30222       81.98407      -16.75855
C        106.04710       81.39579      -17.78297
O        106.97460       80.46637      -17.47583
H        101.77845       82.59477      -19.97353
H        101.70846       83.53490      -17.21160
H        103.35131       85.29015      -18.12730
H        103.02748       84.65718      -19.76674
H        104.69327       83.03157      -20.44793
H        103.77915       83.39265      -16.24250
H        106.39697       81.33207      -19.91346
H        105.47103       81.69608      -15.72800
H        107.51400       80.03200      -18.15145
N        100.85125       86.13994      -17.51203
C         99.96385       87.29134      -17.35312
C         99.67850       87.96212      -18.68554
O         98.98401       87.37686      -19.50199
C         98.64864       86.89881      -16.61532
C         97.71442       88.11371      -16.35995
C         98.95128       86.15138      -15.30292
C         98.30347       89.20949      -15.46350
H        101.73077       86.18558      -16.97696
H        100.51179       88.01237      -16.70894
H         98.07938       86.19203      -17.25827
H         96.77753       87.74654      -15.88743
H         97.43124       88.57367      -17.33108
H         99.55824       86.77177      -14.61232
H         98.00474       85.86268      -14.79901
H         99.51530       85.21671      -15.50692
H         99.20848       89.66047      -15.91812
H         97.55380       90.01753      -15.33388
H         98.55285       88.81495      -14.45751
N        100.18667       89.19267      -18.98869
C         99.92436       89.81393      -20.28229
C        100.97342       90.84895      -20.62740
O        100.64190       91.97472      -20.97537
C         98.49188       90.37331      -20.31758
O         98.16606       90.83652      -21.60318
H        100.82447       89.65353      -18.32159
H        100.03569       89.03449      -21.06784
H         98.37727       91.17377      -19.54750
H         97.78238       89.57575      -20.05231
H         98.05318       91.82084      -21.54674
N        102.28774       90.49622      -20.58961
C        103.36194       91.35312      -21.07217
C        104.20166       90.58852      -22.08789
O        104.14055       89.36591      -22.09097
C        104.21801       91.80706      -19.89801
H        102.53426       89.56217      -20.22545
H        102.92503       92.24900      -21.56041
H        103.59184       92.38565      -19.18434
H        104.65290       90.93402      -19.36720
H        105.03680       92.45438      -20.26128
N        104.96644       91.18828      -23.04458
C        105.09136       92.62244      -23.27800
C        106.54709       92.99276      -23.53026
O        107.24727       92.19466      -24.13878
C        104.27997       92.95587      -24.53276
H        105.42213       90.56126      -23.72763
H        104.66642       93.22307      -22.45428
H        104.33640       94.03961      -24.76435
H        104.65312       92.38124      -25.40834
H        103.21346       92.68966      -24.36714
N        107.07476       94.21914      -23.24697
C        106.36540       95.31914      -22.60148
C        106.16062       95.07980      -21.11656
O        105.16815       95.54726      -20.57537
C        107.09764       96.66367      -22.83886
C        108.48051       96.77913      -22.16836
C        109.15301       98.06475      -22.55536
O        109.42837       98.28560      -23.72448
O        109.47439       98.97188      -21.61387
H        108.03372       94.39030      -23.58519
H        105.38008       95.44827      -23.10113
H        106.45987       97.49643      -22.46603
H        107.20785       96.79149      -23.93897
H        109.14618       95.94631      -22.47074
H        108.35947       96.74749      -21.06454
N        107.09612       94.41727      -20.37898
C        106.98365       94.25974      -18.94435
H        106.97787       95.25722      -18.45685
H        106.05278       93.72216      -18.67650
H        107.85037       93.68143      -18.55945
H        107.93032       94.02751      -20.84255
Ca        98.43884       85.36183      -21.64081
O        100.66101       83.77923      -23.00539
H        101.04145       83.03009      -22.48193
H        100.24824       83.34822      -23.79539
O         98.49490       87.92914      -23.39624
H         98.05263       88.26811      -22.57889
H         99.34408       88.43486      -23.44806
O        101.25853       86.55238      -21.50603
H        101.71538       86.45784      -22.37915
H        101.94916       86.92056      -20.89992

Ca 1.0



