%chk=apoCaM-CA-Ng.loop2.water3.frame32.chk
%nprocshared=20
%mem=10GB
%nosave
#b3lyp/svp scf=(tight,noincore,xqc) Test 
#IOP(5/87=12) Density=Current Pop=(MK,readradii) iop(6/33=2) iop(6/42=6)

apoCaM-CA-Ng.loop2.water3.frame32 

   -2  1 
C         66.20425       48.33946       33.61266
C         66.64565       47.14990       34.41204
O         67.80447       47.08603       34.79655
H         65.38012       48.86434       34.13793
H         67.04662       49.04905       33.46271
H         65.84749       48.00085       32.61674
N         65.76159       46.15173       34.69903
C         66.14367       44.94690       35.43324
C         67.13291       44.08479       34.64337
O         67.71091       43.17943       35.22742
C         64.88027       44.13403       35.78802
C         65.17725       42.91614       36.61772
O         65.76550       43.04347       37.82238
O         64.88359       41.80609       36.20323
H         64.78272       46.26700       34.39224
H         66.62692       45.27634       36.38125
H         64.36748       43.83156       34.84770
H         64.18649       44.78084       36.36790
N         67.38069       44.30924       33.31827
C         68.35773       43.58433       32.51450
C         69.75927       43.79065       33.06172
O         70.52383       42.84316       33.18330
C         67.97174       42.10586       32.35403
H         66.86947       45.05628       32.82813
H         68.34570       44.04033       31.49936
H         68.68158       41.59571       31.66904
H         67.98269       41.57433       33.32785
H         66.95198       42.02956       31.92059
N         70.14135       45.04370       33.43847
C         71.45501       45.41388       33.94712
C         71.90205       44.52125       35.10257
O         73.06877       44.15440       35.16046
C         72.47113       45.44990       32.78393
C         72.00704       46.36123       31.67375
O         71.70357       45.88941       30.59009
O         71.93117       47.69516       31.85017
H         69.44839       45.80268       33.37514
H         71.36803       46.44633       34.35284
H         72.57776       44.41897       32.38281
H         73.46788       45.79150       33.13365
N         71.01562       44.11417       36.05890
C         71.41228       43.30239       37.20001
C         72.09277       44.12156       38.28067
O         72.52584       43.53882       39.26461
H         70.02028       44.36177       35.96601
H         72.06116       42.46549       36.85566
H         70.50974       42.85167       37.66496
N         72.19894       45.47893       38.18563
C         72.83277       46.31341       39.19828
C         72.08364       46.25555       40.51904
O         70.91150       46.60251       40.57416
C         72.90286       47.77450       38.70937
C         73.76559       47.88818       37.47756
N         75.08689       47.59875       37.52753
O         73.26626       48.24440       36.42390
H         71.82162       45.95191       37.35327
H         73.87388       45.95595       39.35170
H         73.33335       48.42986       39.49632
H         71.87138       48.13220       38.48708
H         75.53130       47.30653       38.40958
H         75.67214       47.67616       36.68316
N         72.73857       45.84342       41.63926
C         72.15819       45.79992       42.96964
C         71.79774       47.17764       43.47453
O         72.61055       48.08490       43.36143
H         73.72305       45.54819       41.55462
H         72.93097       45.39909       43.66014
H         71.28870       45.10782       42.99965
N         70.61853       47.38583       44.12544
C         70.24285       48.68056       44.68518
C         69.95964       49.66507       43.56243
O         70.59210       50.71013       43.50357
C         69.03720       48.52550       45.65759
C         68.65390       49.85325       46.32154
O         67.91799       47.98997       44.99914
H         69.99387       46.57823       44.27453
H         71.08489       49.05799       45.31032
H         69.36609       47.82229       46.46026
H         67.38211       47.50424       45.67944
H         68.31113       50.58984       45.56442
H         67.82774       49.68593       47.04519
H         69.52148       50.27432       46.87244
N         68.99865       49.38281       42.64016
C         68.61012       50.28096       41.55165
C         69.75457       50.47353       40.55687
O         70.79524       49.85100       40.72449
C         67.32002       49.74056       40.84092
C         67.57428       48.39543       40.09907
C         66.15721       49.63655       41.85487
C         66.35642       47.87356       39.33442
H         68.50812       48.48661       42.74075
H         68.35549       51.27151       41.99034
H         67.00817       50.49073       40.08333
H         67.90328       47.60226       40.80149
H         68.38374       48.54609       39.35449
H         66.34035       48.85997       42.62578
H         66.00824       50.60978       42.36822
H         65.20343       49.38946       41.34800
H         66.63725       46.95468       38.77721
H         65.53420       47.60260       40.02784
H         65.99783       48.63415       38.60958
N         69.60767       51.27951       39.45920
C         70.62018       51.36723       38.40946
C         71.00667       52.82245       38.11860
O         71.04212       53.22407       36.96789
C         70.05001       50.61524       37.18555
C         70.99335       50.43136       36.03504
O         70.60201       49.83840       35.04369
O         72.25847       50.89198       36.07903
H         68.71561       51.77559       39.31338
H         71.54527       50.84194       38.73156
H         69.13810       51.14159       36.82776
H         69.75016       49.59543       37.51514
N         71.30830       53.67212       39.13824
C         71.73559       55.07015       38.97653
C         70.78835       55.88606       38.08943
O         69.60226       55.91584       38.39153
C         71.77222       55.72177       40.38048
C         72.11758       57.19287       40.37097
C         73.39845       57.63566       40.00411
C         71.14504       58.13892       40.74359
C         73.69868       59.00306       40.01144
C         71.44702       59.50216       40.74421
C         72.72358       59.93474       40.38038
H         71.21530       53.29859       40.09575
H         72.75769       55.08354       38.54766
H         72.48757       55.18328       41.03871
H         70.75910       55.59376       40.82384
H         74.16323       56.92458       39.71866
H         70.14863       57.82309       41.02757
H         74.68771       59.34203       39.73265
H         70.69002       60.22197       41.02853
H         72.95588       60.99180       40.38602
N         71.23032       56.63636       37.02111
C         70.36319       57.52474       36.25927
C         69.49481       56.76695       35.26940
O         68.56793       57.35341       34.73016
C         71.34889       58.47545       35.57216
C         72.51240       57.55032       35.27576
C         72.60781       56.73938       36.57059
H         69.70816       58.11553       36.93771
H         70.94414       59.04472       34.70774
H         71.71239       59.20663       36.33110
H         72.19217       56.87329       34.45180
H         73.45984       58.04579       34.97271
H         73.07254       55.75464       36.34833
H         73.19251       57.28249       37.33953
N         69.74084       55.46009       34.97973
C         68.86968       54.63847       34.15416
C         67.56861       54.44015       34.90303
O         66.51406       54.74125       34.36179
C         69.54206       53.27872       33.85910
C         70.82985       53.46421       33.03269
C         71.54983       52.16512       32.83304
O         72.80496       52.01969       33.29956
O         71.01232       51.24143       32.24386
H         70.57322       55.01745       35.38392
H         68.68346       55.13043       33.17239
H         68.84138       52.63145       33.28697
H         69.77968       52.76619       34.81288
H         71.52567       54.15788       33.54925
H         70.58050       53.90417       32.04291
N         67.58807       53.98074       36.18801
C         66.40637       53.81120       37.00597
H         65.47283       54.04871       36.45545
H         66.35534       52.76163       37.36269
H         66.47584       54.48382       37.88777
H         68.49325       53.76906       36.63194
Ca        72.78094       48.72866       33.66038
O         75.25738       50.71416       35.02279
H         75.75792       50.23375       35.72922
H         75.86866       51.43712       34.73277
O         74.37205       50.33132       31.44887
H         74.90867       49.76562       30.83935
H         73.86408       50.93312       30.84842
O         75.57618       47.78469       33.74234
H         76.22963       47.51882       33.04828
H         75.39436       46.95247       34.24694

Ca 1.0



