%chk=apoCaM-CA-Ng.loop2.water4.frame1201.chk
%nprocshared=20
%mem=10GB
%nosave
#b3lyp/svp scf=(tight,noincore,xqc) Test 
#IOP(5/87=12) Density=Current Pop=(MK,readradii) iop(6/33=2) iop(6/42=6)

apoCaM-CA-Ng.loop2.water4.frame1201 

   -2  1 
C         22.56646       25.07554       92.28264
C         21.60660       24.00275       92.73990
O         20.43206       24.32206       92.84939
H         23.60598       24.74993       92.11560
H         22.21046       25.47126       91.30767
H         22.57457       25.90456       93.01947
N         21.95498       22.70608       92.99670
C         23.30692       22.15509       92.96131
C         23.57721       21.29008       94.18753
O         22.69684       21.10684       95.01712
C         23.54616       21.42214       91.62121
C         22.61454       20.27301       91.35995
O         23.10797       19.03718       91.16303
O         21.41139       20.45781       91.27320
H         21.18670       22.05246       93.21739
H         24.06090       22.95877       93.01656
H         24.59345       21.05592       91.57807
H         23.42512       22.15587       90.79456
N         24.81264       20.74428       94.36737
C         25.21912       19.94694       95.51812
C         24.38548       18.68421       95.66814
O         23.89427       18.39418       96.74975
C         25.25939       20.79938       96.79266
H         25.53094       20.90870       93.64613
H         26.26430       19.61110       95.33015
H         25.66437       20.20098       97.63703
H         25.92879       21.67190       96.63586
H         24.24899       21.16526       97.06620
N         24.25793       17.85130       94.60189
C         23.66749       16.51017       94.65632
C         23.90275       15.77203       93.33964
O         24.25328       16.39266       92.34381
C         22.18761       16.47696       95.12715
C         21.22107       17.31079       94.33376
O         21.59508       18.00372       93.40531
O         19.92013       17.32039       94.68286
H         24.69417       18.17408       93.72599
H         24.25815       15.94449       95.41037
H         22.12473       16.82994       96.17643
H         21.83581       15.42299       95.12424
N         23.87836       14.40971       93.30283
C         24.41246       13.67996       92.16289
C         23.64209       13.88025       90.88175
O         22.49101       14.29276       90.91325
H         23.61646       13.87985       94.14790
H         24.47198       12.59224       92.37918
H         25.45463       14.03778       92.00703
N         24.26692       13.62417       89.69563
C         23.63786       13.78187       88.38819
C         23.70742       12.50481       87.55756
O         23.10919       12.48345       86.48999
C         24.36799       14.88972       87.60290
C         24.37752       16.20309       88.33685
N         25.54254       16.75759       88.74747
O         23.32351       16.77543       88.55719
H         25.26109       13.35135       89.72657
H         22.56727       14.05677       88.51220
H         23.88610       15.04390       86.61263
H         25.41499       14.55842       87.42511
H         26.44331       16.28890       88.57072
H         25.54602       17.65673       89.25114
N         24.46690       11.43064       87.92784
C         24.63119       10.26259       87.08582
C         23.34893        9.46136       87.02560
O         22.92446        9.02553       88.08590
H         25.00855       11.44162       88.80094
H         25.40278        9.59946       87.53451
H         25.04900       10.58389       86.11699
N         22.66196        9.16257       85.88229
C         22.98257        9.60109       84.52851
C         21.79344       10.32961       83.91783
O         21.94901       11.47841       83.52832
C         23.42649        8.40129       83.64216
C         24.77205        7.81295       84.09492
O         22.44813        7.39268       83.57210
H         21.83352        8.55727       85.98973
H         23.82230       10.31545       84.50805
H         23.59050        8.77928       82.60872
H         22.45158        6.89705       84.43236
H         25.56196        8.59329       84.06325
H         24.70540        7.41145       85.12785
H         25.06916        6.98869       83.41121
N         20.59422        9.69843       83.74808
C         19.47307       10.26361       82.99734
C         18.17906       10.16580       83.81744
O         17.96613        9.11160       84.39812
C         19.38607        9.51654       81.63068
C         18.42280       10.25140       80.66950
C         19.03213        8.01912       81.77060
C         18.48079        9.71971       79.23629
H         20.50200        8.73248       84.08654
H         19.70785       11.31207       82.74676
H         20.40286        9.58269       81.17957
H         18.72291       11.32096       80.61874
H         17.38083       10.19746       81.04832
H         18.00393        7.88811       82.16602
H         19.09673        7.50199       80.79392
H         19.74466        7.49284       82.43528
H         17.82552       10.33677       78.58743
H         19.52075        9.78165       78.84790
H         18.12743        8.67168       79.17513
N         17.23830       11.15723       83.94055
C         17.22124       12.46017       83.28163
C         15.98869       12.62693       82.37348
O         15.86251       13.67556       81.76125
C         17.24461       13.56186       84.35486
C         18.44349       13.45129       85.25510
O         18.27426       13.26087       86.57780
O         19.57149       13.53895       84.79727
H         16.43376       10.95595       84.55763
H         18.10004       12.60417       82.63096
H         16.32976       13.47488       84.97509
H         17.25836       14.56268       83.87118
N         15.07025       11.62321       82.20213
C         13.94361       11.67720       81.26631
C         12.63616       11.33390       81.99528
O         12.65112       10.35912       82.73036
C         14.19407       10.58921       80.19506
C         13.17934       10.62989       79.07948
C         12.12748        9.69946       79.03390
C         13.27974       11.60450       78.07077
C         11.18515        9.75195       78.00193
C         12.34294       11.64409       77.03312
C         11.29438       10.72101       77.00097
H         15.20108       10.73327       82.69896
H         13.88840       12.65873       80.75288
H         14.18015        9.59366       80.69212
H         15.20449       10.69880       79.74361
H         12.02667        8.94615       79.80494
H         14.08697       12.32641       78.08476
H         10.36924        9.04130       77.97849
H         12.42884       12.39118       76.25453
H         10.56671       10.75642       76.20037
N         11.43872       11.98237       81.77754
C         11.20181       13.03613       80.80192
C         11.75647       14.39133       81.17374
O         11.80977       15.25269       80.31169
C          9.66879       13.12931       80.71852
C          9.24594       11.71882       81.08545
C         10.17797       11.45054       82.25857
H         11.60077       12.68777       79.83130
H          9.28779       13.78305       81.53939
H          9.27787       13.52063       79.75539
H          8.16669       11.60518       81.32286
H          9.51252       11.03427       80.24849
H          9.85155       12.05031       83.13828
H         10.20162       10.37335       82.52903
N         12.09581       14.67752       82.46330
C         12.56282       15.99269       82.89006
C         11.48097       17.03695       82.62766
O         10.41003       16.91804       83.20644
C         12.88593       15.98329       84.40318
C         14.03165       15.02448       84.75250
C         14.24877       14.96766       86.23771
O         14.13110       13.90806       86.83340
O         14.57788       16.08055       86.92002
H         11.98339       13.93971       83.17081
H         13.49587       16.23038       82.34021
H         11.97317       15.68545       84.96721
H         13.17685       17.00831       84.72487
H         14.95942       15.37225       84.25358
H         13.80946       13.99739       84.39426
N         11.64838       18.09127       81.77726
C         12.84814       18.33166       81.00469
H         13.71955       18.47557       81.67611
H         13.03759       17.48375       80.31499
H         12.72109       19.24792       80.38951
H         10.86906       18.75831       81.66302
Ca        21.66214       17.36717       90.69033
O         18.86046       18.73888       90.33392
H         18.29039       18.11444       89.81852
H         18.38911       18.85409       91.19670
O         20.19841       15.77753       88.57630
H         20.04833       14.81021       88.72397
H         20.51842       15.84161       87.64171
O         20.87402       19.11299       88.00699
H         20.05076       18.62677       87.74951
H         21.46091       19.04305       87.21288
O         19.46882       15.63260       91.62999
H         19.29170       15.17653       92.49016
H         18.58188       15.95152       91.32726

Ca 1.0



