%chk=apoCaM-CA-Ng.loop1.water3.frame49.chk
%nprocshared=20
%mem=10GB
%nosave
#b3lyp/svp scf=(tight,noincore,xqc) Test 
#IOP(5/87=12) Density=Current Pop=(MK,readradii) iop(6/33=2) iop(6/42=6)

apoCaM-CA-Ng.loop1.water3.frame49 

   0  1 
C         82.29005       53.08921       62.94681
C         82.30904       53.45692       64.40458
O         82.11055       54.61965       64.72408
H         81.30300       53.34679       62.50939
H         83.08528       53.64590       62.40879
H         82.46310       52.00163       62.79747
N         82.55415       52.50573       65.34706
C         82.59171       52.76521       66.78501
C         83.99252       52.54693       67.36280
O         84.12638       52.43074       68.57260
C         81.48346       51.95149       67.50330
C         81.52126       50.45404       67.35989
O         82.37825       49.89830       66.69906
O         80.57394       49.71275       67.96527
H         82.74050       51.54691       65.02087
H         82.35064       53.82861       67.00341
H         80.49921       52.29240       67.11337
H         81.52210       52.18082       68.58616
N         85.09368       52.60029       66.55568
C         86.48196       52.49580       67.00566
C         87.20187       53.81132       66.70796
O         87.10689       54.25293       65.57058
C         87.20817       51.38665       66.20826
C         86.94760       49.93756       66.64722
C         85.49615       49.45754       66.57443
C         85.43579       47.95306       66.89467
N         84.06321       47.45192       66.90160
H         84.95606       52.77142       65.54883
H         86.55099       52.25504       68.07676
H         88.30384       51.52108       66.34771
H         87.00160       51.50932       65.12155
H         87.31320       49.80618       67.68931
H         87.56567       49.29503       65.98174
H         85.08389       49.63520       65.55713
H         84.89551       50.01267       67.32099
H         85.89195       47.76310       67.89175
H         86.02190       47.39621       66.12979
H         84.07823       46.42076       67.07302
H         83.52452       47.90405       67.67484
H         83.60451       47.63356       65.97944
N         88.00356       54.49318       67.59204
C         88.34459       54.14967       68.97722
C         88.94262       52.74703       69.05537
O         88.37721       51.89729       69.72924
C         87.15378       54.38924       69.93127
C         86.62239       55.80037       69.86643
O         85.56323       56.12381       70.61951
O         87.07987       56.62948       69.09497
H         88.46846       55.33883       67.22382
H         89.12179       54.85954       69.33970
H         87.47672       54.18672       70.97570
H         86.31463       53.70813       69.69477
N         90.06779       52.39046       68.36494
C         90.89277       53.31300       67.59703
C         92.36671       53.17159       67.93945
O         92.73076       52.23788       68.64229
H         90.35001       51.39763       68.38378
H         90.57715       54.35298       67.76236
H         90.78180       53.09346       66.51478
N         93.30906       54.03867       67.45969
C         92.97770       55.27074       66.74158
C         92.31788       56.30612       67.66319
O         91.86233       57.32755       67.16345
C         94.21176       55.88044       66.03822
C         95.26775       56.41329       66.97407
O         95.92308       55.59388       67.81726
O         95.55717       57.59876       66.94924
H         94.29684       53.81619       67.64585
H         92.27030       54.99930       65.92703
H         93.85742       56.71649       65.39388
H         94.66677       55.11869       65.36887
N         92.19946       56.09601       69.00811
C         91.48746       57.00174       69.89999
C         91.22360       56.37636       71.26380
O         91.64849       55.25531       71.51604
H         92.59650       55.23756       69.40727
H         90.49581       57.23296       69.45710
H         92.06108       57.94982       70.00912
N         90.48281       57.04381       72.19313
C         90.19904       56.50910       73.52444
C         88.71054       56.25076       73.69800
O         87.89737       57.12865       73.44757
C         90.71938       57.45399       74.62029
C         92.23968       57.62195       74.52275
O         90.40474       56.90317       75.87511
H         90.10519       57.97352       71.94961
H         90.72937       55.54266       73.67753
H         90.22091       58.44425       74.50010
H         90.36249       57.65402       76.52181
H         92.59598       58.29126       75.33293
H         92.74414       56.63652       74.63107
H         92.52651       58.06640       73.54702
N         88.30422       55.03652       74.16118
C         86.91499       54.62110       74.33636
C         86.19073       55.50642       75.34183
O         86.59953       55.57592       76.49289
C         86.86488       53.12766       74.80906
C         87.47511       52.19286       73.72610
C         85.42409       52.67874       75.14199
C         87.71506       50.76724       74.22437
H         89.04337       54.36204       74.40575
H         86.39560       54.67945       73.35404
H         87.46959       53.05227       75.74150
H         88.46713       52.55964       73.39868
H         86.81977       52.17926       72.82788
H         84.77935       52.73978       74.24031
H         85.39815       51.64302       75.53178
H         84.98543       53.30687       75.94339
H         88.40628       50.78468       75.09476
H         86.77435       50.26039       74.51252
H         88.18659       50.17226       73.41455
N         85.03324       56.12540       74.97225
C         84.12885       56.80140       75.89867
C         82.79276       56.05776       75.98987
O         81.93837       56.50256       76.74389
C         83.90730       58.28150       75.47936
C         83.32047       58.45237       74.06781
O         85.09670       59.01834       75.60661
H         84.73201       56.04100       73.99015
H         84.55154       56.80494       76.92784
H         83.17618       58.72780       76.18979
H         85.73932       58.67713       74.93286
H         82.36041       57.90780       73.97667
H         83.12836       59.52669       73.86622
H         84.02115       58.07939       73.29272
N         82.53622       54.92490       75.25970
C         81.27215       54.18806       75.26327
C         80.16049       55.05994       74.68380
O         80.42018       56.20973       74.35396
C         80.94735       53.60153       76.66888
C         82.15713       52.86445       77.26415
O         79.88175       52.69271       76.55981
H         83.25865       54.54300       74.63835
H         81.39560       53.32268       74.57217
H         80.66093       54.42794       77.35581
H         79.59703       52.45361       77.47996
H         81.88812       52.43335       78.25195
H         82.48589       52.04280       76.59304
H         83.00216       53.56448       77.42767
N         78.89687       54.58391       74.49551
C         77.85691       55.40893       73.89433
C         78.24517       55.80495       72.48044
O         78.30245       56.99753       72.21265
C         76.44195       54.78097       73.98897
C         76.23001       53.36059       73.43520
C         74.74388       52.97969       73.55380
C         74.45411       51.51175       73.20323
N         74.95857       50.59545       74.23000
H         78.67390       53.62391       74.77817
H         77.76762       56.34744       74.48974
H         75.73254       55.48021       73.49328
H         76.17234       54.74262       75.06853
H         76.85450       52.65886       74.01901
H         76.50229       53.28859       72.36567
H         74.17742       53.63202       72.85259
H         74.36508       53.17166       74.58118
H         74.88007       51.25585       72.20798
H         73.35001       51.38813       73.14541
H         75.99945       50.63148       74.29498
H         74.53891       50.83601       75.15833
H         74.67661       49.61933       73.98492
N         78.53206       54.87305       71.52737
C         78.88114       55.22836       70.15855
C         77.71837       54.88525       69.26321
O         77.33051       53.72574       69.20289
C         80.12968       54.46946       69.67942
C         81.37048       54.68837       70.53943
C         81.83291       56.11054       70.58120
O         82.23558       56.73417       69.46065
O         81.99253       56.65903       71.65844
H         78.48098       53.87323       71.76729
H         79.08729       56.31773       70.07415
H         80.35835       54.76279       68.62988
H         79.90978       53.38049       69.69378
H         82.20000       54.08108       70.11465
H         81.18200       54.32371       71.57211
N         77.10563       55.86211       68.54036
C         75.97821       55.61768       67.66770
H         75.11558       56.22544       68.01069
H         76.24689       55.91738       66.63392
H         75.67427       54.55003       67.65774
H         77.44850       56.83237       68.60797
Ca        84.17934       57.73753       69.89360
O         86.40743       60.09037       68.81442
H         87.37538       59.93287       68.95177
H         86.26371       61.02457       69.10991
O         86.10526       59.27792       71.78784
H         86.40152       58.34467       71.64855
H         86.61822       59.58263       72.57706
O         84.70103       56.70339       67.08659
H         84.80840       57.07815       66.17692
H         85.23695       55.87169       67.07820

Ca 1.0



