%chk=apoCaM-CA-Ng.loop2.water2.frame900.chk
%nprocshared=20
%mem=10GB
%nosave
#b3lyp/svp scf=(tight,noincore,xqc) Test 
#IOP(5/87=12) Density=Current Pop=(MK,readradii) iop(6/33=2) iop(6/42=6)

apoCaM-CA-Ng.loop2.water2.frame900 

   -2  1 
C          2.95923       12.74336       47.05113
C          2.47420       13.13347       48.41451
O          3.28736       13.44830       49.27218
H          4.06789       12.79236       46.99854
H          2.63316       11.70832       46.81891
H          2.53598       13.43886       46.29596
N          1.13921       13.13935       48.68474
C          0.59566       13.53788       49.97797
C          0.97988       14.98108       50.26291
O          1.58113       15.23646       51.29592
C         -0.93277       13.33436       50.00242
C         -1.50206       13.57734       51.37306
O         -2.35734       14.43066       51.54320
O         -1.08341       12.83647       52.41815
H          0.48962       12.85205       47.93537
H          1.02537       12.87089       50.76039
H         -1.16019       12.27945       49.73296
H         -1.42248       13.99423       49.25356
N          0.71381       15.96133       49.34816
C          1.16782       17.34813       49.47726
C          0.72116       18.15274       48.25323
O          1.06834       17.73972       47.15451
C          2.70407       17.41520       49.54945
H          0.19631       15.69065       48.49703
H          0.77569       17.76609       50.42071
H          3.16219       16.96085       48.64517
H          3.03418       18.47260       49.62515
H          3.09964       16.89056       50.44073
N         -0.02095       19.30218       48.30024
C         -0.44587       19.99832       49.51250
C         -1.77067       20.72909       49.31055
O         -2.29764       20.74482       48.20715
C          0.67953       20.93381       50.01325
C          1.07702       21.99028       49.01411
O          1.54966       21.67464       47.93356
O          0.95658       23.29389       49.32727
H         -0.22217       19.75638       47.39507
H         -0.68091       19.25688       50.29900
H          1.58065       20.32991       50.24853
H          0.35677       21.42743       50.95381
N         -2.41082       21.27879       50.38354
C         -3.74870       21.84930       50.31690
C         -3.86351       23.10067       51.15994
O         -4.53726       23.03675       52.17828
H         -1.98371       21.17342       51.31668
H         -4.42913       21.09610       50.76981
H         -4.10163       22.01588       49.27921
N         -3.24684       24.27843       50.87041
C         -2.46605       24.55101       49.67461
C         -3.41814       24.66174       48.47523
O         -4.29219       25.51717       48.50514
C         -1.68151       25.86527       49.92583
C         -0.58913       26.12562       48.91340
N          0.10949       27.37932       49.18489
O         -1.10893       26.13812       47.63675
H         -3.34673       25.03650       51.56615
H         -1.71709       23.74078       49.54245
H         -1.15557       25.78577       50.90249
H         -2.38082       26.72813       49.97457
H         -0.55964       28.17766       49.09707
H          0.85470       27.51002       48.46187
N         -3.32703       23.82274       47.40020
C         -4.31088       23.78910       46.31603
C         -3.91095       24.56813       45.07250
O         -4.68278       24.57715       44.12361
H         -2.59072       23.10786       47.39556
H         -5.29094       24.17173       46.67501
H         -4.47890       22.72799       46.03041
N         -2.74700       25.26747       45.01080
C         -2.30531       26.07940       43.87933
C         -0.92045       25.62304       43.42617
O         -0.38827       24.67430       43.98765
C         -2.28382       27.57731       44.30528
C         -3.69110       28.09451       44.61293
O         -1.48135       27.77118       45.43924
H         -2.13156       25.24382       45.82358
H         -2.99761       25.98310       43.01351
H         -1.90927       28.21707       43.47585
H         -0.54141       27.65937       45.14851
H         -4.14972       27.53310       45.45371
H         -3.64201       29.16880       44.89409
H         -4.33853       27.99985       43.71506
N         -0.25827       26.28094       42.43206
C          1.10377       25.95677       42.01393
C          1.99324       27.13306       42.37451
O          1.69975       28.24484       41.95161
C          1.15894       25.64078       40.49216
C          2.61688       25.28668       40.08203
C          0.18786       24.49266       40.15470
C          2.79865       24.99023       38.59338
H         -0.71980       27.07965       41.96974
H          1.47517       25.05512       42.54990
H          0.83185       26.54152       39.92529
H          2.97178       24.40819       40.66482
H          3.28025       26.14609       40.31936
H         -0.85001       24.75809       40.44600
H          0.16156       24.29965       39.06352
H          0.48130       23.56124       40.68389
H          2.46063       25.85331       37.98237
H          3.87460       24.80643       38.38751
H          2.24421       24.07867       38.29257
N          3.10082       26.95957       43.15531
C          3.93439       28.07014       43.62300
C          5.32454       28.03495       43.03435
O          6.00885       29.04419       43.11147
C          4.11177       28.00134       45.15472
C          2.85429       27.57432       45.81365
O          1.85318       28.27031       45.77406
O          2.79949       26.32653       46.30999
H          3.33808       26.00427       43.46260
H          3.45016       29.03295       43.34553
H          4.50304       28.95296       45.57613
H          4.85167       27.20065       45.38346
N          5.86577       26.86918       42.56964
C          7.25124       26.78008       42.15121
C          7.65743       25.32699       41.90763
O          7.12110       24.72355       40.99129
C          7.48468       27.56831       40.83973
C          8.89371       27.32549       40.35371
C          9.11195       26.53184       39.21419
C          9.99363       27.81543       41.07477
C         10.41180       26.21994       38.81327
C         11.29370       27.50893       40.66378
C         11.50237       26.70711       39.53763
H          5.31371       26.00258       42.58677
H          7.88082       27.21136       42.95416
H          7.29661       28.65594       40.95585
H          6.75693       27.18759       40.08818
H          8.27639       26.12527       38.65698
H          9.84249       28.41944       41.96093
H         10.57117       25.58918       37.94852
H         12.13899       27.88172       41.22648
H         12.50856       26.45756       39.22933
N          8.67191       24.73181       42.61346
C          9.31015       23.49212       42.19613
C          8.46618       22.24810       42.37788
O          8.93545       21.18765       41.98407
C         10.61862       23.48302       42.99215
C         10.21275       24.16875       44.27664
C          9.34894       25.31306       43.75360
H          9.57761       23.54348       41.11681
H         11.11571       22.49491       43.09002
H         11.33023       24.17701       42.48566
H          9.56346       23.45984       44.83884
H         11.04785       24.49216       44.93365
H          8.64964       25.63395       44.55694
H          9.96524       26.17009       43.40583
N          7.20288       22.27994       42.89130
C          6.34498       21.09757       42.89134
C          5.98090       20.64392       41.47192
O          5.36238       19.59684       41.34479
C          5.07765       21.33045       43.74501
C          4.12367       22.40702       43.19727
C          2.99221       22.62572       44.16044
O          2.82071       23.72195       44.66805
O          2.16988       21.60967       44.48169
H          6.84509       23.16059       43.28431
H          6.90848       20.27501       43.38730
H          5.40898       21.62096       44.76665
H          4.51930       20.37128       43.83233
H          3.71101       22.08950       42.21586
H          4.65824       23.36830       43.05270
N          6.32742       21.37043       40.36404
C          6.03634       20.96642       39.00425
H          5.42188       21.75015       38.51309
H          6.99113       20.86509       38.44452
H          5.49416       20.00070       38.95219
H          6.82566       22.26209       40.45763
Ca         0.76015       25.55623       46.59953
O         -0.63534       22.38793       45.63344
H         -0.62148       22.27110       46.61468
H         -0.44376       21.48595       45.27531
O          4.08134       23.91517       47.59586
H          4.13033       22.99834       47.96596
H          4.56652       24.47530       48.25262

Ca 1.0



