%chk=apoCaM-CA-Ng.loop4.water3.frame255.chk
%nprocshared=20
%mem=10GB
%nosave
#b3lyp/svp scf=(tight,noincore,xqc) Test 
#IOP(5/87=12) Density=Current Pop=(MK,readradii) iop(6/33=2) iop(6/42=6)

apoCaM-CA-Ng.loop4.water3.frame255 

   -3  1 
C         24.15959       49.45657       12.32972
C         23.72459       50.60972       13.23095
O         24.67683       50.71920       14.24706
H         25.18333       49.65125       11.93755
H         24.17314       48.50913       12.90641
H         23.46584       49.34609       11.47067
N         23.66162       51.84625       12.43680
C         23.24886       53.09042       13.11867
C         24.22232       53.52625       14.21062
O         24.07407       53.13715       15.35530
C         21.72517       53.25393       13.39862
C         21.00646       52.29521       14.31055
O         21.61898       51.25640       14.88777
O         19.81229       52.45311       14.50728
H         23.03093       51.69898       11.61406
H         23.38465       53.86723       12.33352
H         21.19877       53.19295       12.42071
H         21.56657       54.27837       13.80023
N         25.28059       54.32014       13.85443
C         26.35941       54.88334       14.67294
C         25.86135       55.97333       15.61661
O         26.21964       57.12419       15.40456
C         27.27784       53.83939       15.38063
C         28.64240       54.47388       15.79201
C         27.53771       52.58773       14.52834
C         29.55608       54.89822       14.62034
H         25.35612       54.55609       12.85254
H         27.00093       55.39580       13.92903
H         26.76393       53.48545       16.30162
H         29.20546       53.72492       16.38328
H         28.46983       55.35536       16.44488
H         26.59440       52.05939       14.34390
H         27.97876       52.83418       13.54293
H         28.20589       51.88392       15.07236
H         29.11288       55.69949       13.99765
H         30.51467       55.29155       15.01602
H         29.80479       54.03844       13.96484
N         25.01377       55.71061       16.65387
C         24.45059       56.76458       17.48566
C         25.48986       57.34456       18.44518
O         25.70815       58.54477       18.35958
C         23.13442       56.31598       18.17735
C         22.02713       55.98576       17.20305
O         20.81630       55.63635       17.67756
O         22.20240       56.03562       15.99508
H         24.70309       54.75047       16.82858
H         24.11575       57.59511       16.82059
H         22.76990       57.15140       18.81303
H         23.26619       55.42728       18.81285
N         26.17789       56.63442       19.39251
C         26.04701       55.20282       19.62587
C         26.82576       54.71858       20.84637
O         27.66989       55.45432       21.33736
H         26.81557       57.17782       19.99360
H         26.36965       54.63454       18.72707
H         25.00555       55.01231       19.82247
N         26.63593       53.48956       21.42449
C         25.64781       52.47538       21.05492
C         25.82476       52.09332       19.59062
O         24.90390       52.28063       18.80882
C         24.22606       52.91489       21.50551
C         23.21295       51.80941       21.41909
O         23.40824       50.65745       22.08867
O         22.18281       51.96880       20.78612
H         27.25108       53.24759       22.21774
H         25.84430       51.56783       21.66765
H         23.83819       53.78605       20.95642
H         24.28520       53.20496       22.57672
N         27.00888       51.59773       19.11298
C         28.15451       51.25608       19.95027
C         29.32827       52.17601       19.73472
O         29.29171       53.03770       18.86782
H         27.09926       51.44459       18.09709
H         28.45363       50.20363       19.76664
H         27.90741       51.31369       21.02278
N         30.39957       52.07889       20.57271
C         31.53821       52.99094       20.52864
C         32.48224       52.67948       19.36285
O         33.42309       53.42964       19.15947
C         32.27682       52.92207       21.89327
C         33.33033       54.02432       22.10984
C         33.95967       53.92911       23.47811
N         33.21754       54.07603       24.60132
O         35.16164       53.72960       23.57289
H         30.34877       51.38237       21.33408
H         31.13781       54.02511       20.42903
H         32.74143       51.91848       22.01716
H         31.50758       53.04423       22.68716
H         32.85568       55.02401       22.00416
H         34.13689       53.93558       21.35705
H         32.20539       54.25964       24.55024
H         33.66031       54.01437       25.53035
N         32.30848       51.57919       18.56905
C         33.24798       51.18781       17.51456
C         33.88205       49.82751       17.80260
O         34.77594       49.44553       17.05618
C         32.56995       51.21992       16.12202
C         32.18258       52.65501       15.74771
C         31.34183       50.30602       16.05097
H         31.50144       50.96605       18.73238
H         34.10184       51.90001       17.47948
H         33.30600       50.87014       15.36415
H         31.72704       52.67590       14.73590
H         31.46169       53.07304       16.47972
H         33.08524       53.30246       15.73285
H         30.92028       50.30366       15.02421
H         31.62145       49.26659       16.32078
H         30.55082       50.66323       16.73878
N         33.52889       49.07313       18.88496
C         34.23847       47.87221       19.30232
C         33.34665       46.63227       19.39538
O         33.73030       45.61841       18.82948
C         35.03724       48.16505       20.60458
C         34.31953       48.75116       21.80728
N         35.03365       49.07658       22.90906
O         33.11931       48.96220       21.80196
H         32.77688       49.39969       19.50033
H         35.03511       47.61368       18.56622
H         35.81556       48.91260       20.33396
H         35.56268       47.23622       20.91800
H         36.05180       48.92301       22.94202
H         34.56733       49.49072       23.73025
N         32.18746       46.60567       20.11919
C         31.45868       45.37270       20.42413
C         30.01635       45.40688       19.93842
O         29.32474       46.38530       20.17970
C         31.44030       45.17851       21.95211
C         32.82391       45.13663       22.55986
C         33.73940       44.12609       22.21649
C         33.20421       46.11356       23.49462
C         35.01098       44.09745       22.80131
C         34.47389       46.08385       24.07516
C         35.38103       45.07783       23.73405
O         36.59967       45.06250       24.31074
H         31.83705       47.47173       20.54257
H         31.96342       44.48403       19.98648
H         30.91476       44.23067       22.20151
H         30.85992       46.01359       22.40363
H         33.46999       43.35796       21.50280
H         32.51845       46.90310       23.77507
H         35.70625       43.31219       22.53219
H         34.75119       46.84528       24.79309
H         37.25552       44.37913       24.11307
N         29.47481       44.30225       19.33763
C         28.06844       44.15121       18.95650
C         27.64061       45.03723       17.80119
O         26.46295       44.99717       17.46575
C         27.10226       44.28230       20.16267
C         27.34356       43.19393       21.21779
C         26.25840       43.21224       22.25866
O         25.53967       42.23638       22.41060
O         26.06403       44.30483       23.02098
H         30.07979       43.48050       19.19039
H         27.92657       43.11660       18.57008
H         26.06484       44.13747       19.78587
H         27.14953       45.29120       20.62381
H         28.33156       43.33759       21.70339
H         27.33544       42.19861       20.71987
N         28.52739       45.77185       17.07003
C         28.12442       46.51271       15.88055
C         28.66307       45.85909       14.61589
O         28.38917       46.37285       13.54028
C         28.60057       47.97402       15.96525
C         28.22920       48.67912       17.27670
C         26.76486       48.62111       17.56943
O         25.96586       49.08078       16.77488
O         26.32828       48.06145       18.71372
H         29.52997       45.75704       17.30783
H         27.01620       46.52172       15.78152
H         28.16871       48.53815       15.10780
H         29.70467       48.00157       15.87207
H         28.53722       49.74069       17.20510
H         28.78530       48.21543       18.11828
N         29.41862       44.71967       14.65826
C         29.95034       44.06901       13.47939
H         31.05685       44.02636       13.55724
H         29.55445       43.03336       13.42385
H         29.68385       44.60001       12.54243
H         29.63947       44.26956       15.55676
Ca        23.69003       50.45938       16.29756
O         22.45770       47.76929       15.92764
H         23.41924       47.53314       15.90432
H         22.29275       48.22260       15.06275
O         22.98651       49.01981       18.96041
H         23.77209       48.60805       18.52286
H         23.35374       49.81681       19.41618
O         22.00799       52.30966       17.95657
H         21.84185       53.19261       17.54520
H         21.15264       52.07645       18.39638

Ca 1.0



