%chk=apoCaM-CA-Ng.loop1.water5.frame534.chk
%nprocshared=20
%mem=10GB
%nosave
#b3lyp/svp scf=(tight,noincore,xqc) Test 
#IOP(5/87=12) Density=Current Pop=(MK,readradii) iop(6/33=2) iop(6/42=6)

apoCaM-CA-Ng.loop1.water5.frame534 

   0  1 
C         86.20349       11.36369       41.32769
C         86.96777       10.80185       40.16574
O         87.82824       11.48167       39.62613
H         85.11868       11.37210       41.09021
H         86.37236       10.72850       42.22298
H         86.52937       12.40028       41.55604
N         86.68892        9.54103       39.73058
C         87.34717        8.85657       38.61996
C         88.80874        8.55353       38.93896
O         89.33175        9.08947       39.90073
C         87.11625        9.62499       37.29817
C         87.51376        8.84921       36.07756
O         86.93192        7.66451       35.80861
O         88.34518        9.29966       35.30897
H         85.94522        9.01939       40.22077
H         86.84190        7.86803       38.53515
H         87.65720       10.59469       37.31787
H         86.02993        9.83811       37.20128
N         89.48868        7.62220       38.20631
C         90.80913        7.06323       38.50048
C         90.76077        6.22028       39.77940
O         90.76145        5.00148       39.67578
C         91.95625        8.10196       38.49331
C         92.03721        8.99414       37.23736
C         92.13328        8.21502       35.91479
C         92.48421        9.11103       34.70884
N         91.51137       10.18022       34.47916
H         89.00547        7.19919       37.40222
H         91.02599        6.34591       37.67605
H         92.91557        7.54784       38.59788
H         91.87277        8.78465       39.36326
H         92.94612        9.62573       37.35063
H         91.15113        9.66296       37.20585
H         91.17205        7.69095       35.72310
H         92.93891        7.45409       35.99796
H         92.53375        8.46795       33.80187
H         93.48999        9.56011       34.86210
H         91.78994       10.71290       33.62347
H         90.56319        9.77598       34.32226
H         91.49566       10.84803       35.28263
N         90.69505        6.79303       41.01581
C         90.50567        6.04977       42.26190
C         89.11771        5.40446       42.23247
O         88.16691        6.16141       42.08548
C         90.59773        7.06446       43.43035
C         90.56422        6.49394       44.81531
O         90.50330        5.17252       45.04700
O         90.63156        7.25717       45.76549
H         90.78340        7.81248       41.08419
H         91.33394        5.32453       42.36597
H         89.77302        7.80640       43.33509
H         91.56009        7.61476       43.34200
N         88.85281        4.06253       42.29986
C         89.79141        2.96129       42.46909
C         89.28521        2.00248       43.53456
O         88.15544        1.55314       43.42250
H         87.86569        3.78877       42.17146
H         90.82264        3.29361       42.68386
H         89.81107        2.39097       41.51597
N         90.07575        1.58162       44.56095
C         89.59800        0.64105       45.57873
C         88.67422        1.32980       46.57163
O         89.08102        2.32525       47.14483
C         90.77079       -0.06541       46.30679
C         91.75974        0.78850       47.06162
O         92.76393        0.18826       47.72693
O         91.68453        2.00371       47.07509
H         91.05789        1.89321       44.57887
H         89.05501       -0.19352       45.07918
H         91.34574       -0.64459       45.55278
H         90.33160       -0.79080       47.02667
N         87.42663        0.84993       46.85311
C         86.56807        1.46573       47.86014
C         85.30737        1.99490       47.23855
O         84.22414        1.63530       47.67753
H         87.08066        0.01091       46.36340
H         87.06853        2.32440       48.35498
H         86.33519        0.72325       48.65552
N         85.38776        2.85821       46.18865
C         84.23010        3.44170       45.52118
C         84.42516        4.93980       45.39370
O         85.45384        5.36313       44.88411
C         83.99607        2.77011       44.14618
C         85.11218        3.00837       43.12993
O         83.84884        1.38440       44.32486
H         86.32467        3.08135       45.82035
H         83.30471        3.23873       46.10558
H         83.06506        3.18373       43.69387
H         82.96029        1.23823       44.74319
H         84.89350        2.45632       42.19328
H         85.20244        4.08042       42.86546
H         86.07000        2.65485       43.53942
N         83.48399        5.80725       45.85184
C         83.65412        7.25705       45.79351
C         83.83370        7.83284       47.18761
O         84.03002        9.03550       47.29939
C         82.51249        7.93110       44.98127
C         81.12154        7.74383       45.63880
C         82.54374        7.41010       43.53044
C         80.01396        8.53614       44.93996
H         82.63080        5.42653       46.28777
H         84.60111        7.51619       45.27003
H         82.73362        9.02174       44.94847
H         81.16875        8.10757       46.68753
H         80.83438        6.67159       45.65309
H         82.31061        6.32442       43.49343
H         81.82377        7.95293       42.88709
H         83.55126        7.56988       43.08924
H         79.05998        8.40167       45.49139
H         80.26512        9.61814       44.92530
H         79.85238        8.18190       43.90202
N         83.86382        7.02465       48.28807
C         84.18518        7.49166       49.62552
C         83.05535        7.19112       50.58430
O         82.04533        6.62342       50.18769
C         85.53336        6.86634       50.08166
C         85.51325        5.33230       50.15280
O         86.55100        7.25913       49.19917
H         83.70405        6.01446       48.18822
H         84.31761        8.59591       49.63376
H         85.79203        7.22388       51.10311
H         86.73929        8.21668       49.38314
H         85.33670        4.87737       49.15619
H         86.49764        4.96535       50.51256
H         84.73069        4.98163       50.85795
N         83.16620        7.58326       51.88041
C         82.12158        7.41213       52.87057
C         81.69950        8.78759       53.34311
O         80.53692        9.13041       53.17835
C         82.61446        6.47538       54.00696
C         81.56477        6.29240       55.10847
O         83.80694        6.95439       54.57436
H         84.02995        8.05945       52.17919
H         81.22802        6.92024       52.42219
H         82.80499        5.48174       53.53413
H         84.31364        6.16563       54.90214
H         80.62075        5.89148       54.68377
H         81.94148        5.57648       55.87001
H         81.35508        7.25822       55.61515
N         82.58722        9.62196       53.95838
C         82.20205       10.90021       54.53133
C         83.23923       11.96213       54.20666
O         84.41096       11.75351       54.49239
C         82.03694       10.68150       56.04031
C         81.36109       11.86644       56.74502
C         80.91284       11.49558       58.16746
C         82.07687       11.20858       59.12558
N         81.57189       10.79201       60.43332
H         83.54699        9.29348       54.13368
H         81.20627       11.21113       54.14543
H         83.01349       10.42349       56.50264
H         81.35789        9.80717       56.15787
H         80.43475       12.11868       56.18286
H         82.02118       12.76020       56.74582
H         80.25016       10.60304       58.10855
H         80.31367       12.33559       58.57995
H         82.69191       12.12889       59.23533
H         82.72340       10.39820       58.72862
H         81.04640        9.89179       60.33826
H         82.37823       10.64258       61.08134
H         80.94223       11.52522       60.83244
N         82.87379       13.14708       53.63837
C         83.83576       14.20025       53.32844
C         84.80047       13.76167       52.22512
O         85.99036       13.72938       52.50552
C         83.11281       15.53844       53.04461
C         84.08870       16.67038       52.68414
C         83.37348       17.98507       52.56108
O         83.72047       19.01602       53.35539
O         82.48285       18.13022       51.73881
H         81.87222       13.32112       53.46375
H         84.43638       14.40035       54.24671
H         82.56374       15.81917       53.97139
H         82.35540       15.43982       52.24772
H         84.58771       16.44374       51.71703
H         84.86767       16.75732       53.47220
N         84.42767       13.39479       50.96317
C         83.06888       13.35500       50.47021
H         82.62998       14.36750       50.44225
H         83.06512       12.98096       49.42435
H         82.45244       12.66735       51.08333
H         85.16886       13.10577       50.30523
Ca        90.66208        4.62602       47.22828
O         87.82765        5.73469       46.85476
H         87.68246        5.36642       47.76176
H         87.94161        4.93509       46.28277
O         92.68180        4.45980       49.56808
H         92.16307        4.45987       50.41133
H         92.99864        3.52677       49.47068
O         93.73410        4.43837       46.53614
H         93.65904        4.56929       45.55764
H         93.97757        3.48439       46.64137
O         90.34995        6.78950       49.37360
H         89.39599        7.03571       49.27779
H         90.84035        7.50349       48.89384
O         89.35797        3.36030       49.74697
H         89.56529        3.66584       50.66442
H         89.64004        2.41096       49.73082

Ca 1.0



