%chk=apoCaM-CA-Ng.loop3.water5.frame1039.chk
%nprocshared=20
%mem=10GB
%nosave
#b3lyp/svp scf=(tight,noincore,xqc) Test 
#IOP(5/87=12) Density=Current Pop=(MK,readradii) iop(6/33=2) iop(6/42=6)

apoCaM-CA-Ng.loop3.water5.frame1039 

   0  1 
C         37.89976       45.74524       47.44683
C         39.06116       46.59120       47.02546
O         39.51976       47.40700       47.81307
H         37.04310       45.92981       46.76457
H         38.18255       44.67358       47.40114
H         37.58904       45.99483       48.48388
N         39.57510       46.46014       45.77050
C         40.65983       47.28970       45.26640
C         40.12826       48.21338       44.18485
O         40.04994       49.40599       44.44357
C         41.92067       46.46363       44.88666
C         41.79419       45.25110       43.98657
O         40.61044       44.77663       43.56000
O         42.80633       44.64013       43.68625
H         39.13368       45.77819       45.13821
H         41.01250       47.97368       46.07175
H         42.36394       46.08020       45.83144
H         42.65395       47.16258       44.43407
N         39.74350       47.76257       42.96041
C         39.19093       48.62402       41.92529
C         40.27313       48.81906       40.88821
O         40.13999       48.39534       39.74844
C         37.87924       48.00496       41.38828
C         36.85833       47.81236       42.53016
C         35.53772       47.15943       42.09644
C         34.70535       48.03904       41.15298
N         33.41511       47.41165       40.86528
H         39.86844       46.77641       42.71780
H         38.94534       49.63310       42.32065
H         38.09362       47.01553       40.92655
H         37.46213       48.67736       40.60943
H         36.64425       48.78900       43.01649
H         37.30560       47.14018       43.29451
H         34.93963       46.98273       43.01755
H         35.74060       46.17350       41.62351
H         35.25073       48.20275       40.19942
H         34.52710       49.02647       41.63408
H         32.87453       47.27812       41.75122
H         32.86572       48.03243       40.22826
H         33.55900       46.48667       40.39890
N         41.42030       49.44631       41.27959
C         42.62264       49.56828       40.46709
C         43.77032       48.85597       41.17297
O         43.58961       48.38701       42.28911
C         42.95024       51.04930       40.16935
C         43.22287       51.88713       41.39310
O         42.25386       52.11342       42.29940
O         44.31637       52.40725       41.54566
H         41.46350       49.80787       42.24298
H         42.46731       49.06141       39.48959
H         42.10437       51.50724       39.61271
H         43.84058       51.08383       39.50464
N         44.97600       48.69020       40.56012
C         46.06363       47.93121       41.16310
C         45.60240       46.50783       41.42279
O         45.10870       45.89781       40.48495
H         45.11674       49.07330       39.61346
H         46.40502       48.44809       42.08097
H         46.91784       47.90467       40.45336
N         45.66060       45.89223       42.64270
C         46.34343       46.40991       43.82668
C         46.00019       45.54756       45.04623
O         46.20254       44.34341       44.98061
C         47.87362       46.34990       43.58822
C         48.68391       46.76481       44.79444
N         48.62439       48.02639       45.27701
O         49.41082       45.94590       45.33769
H         45.22329       44.95991       42.70907
H         46.02452       47.45159       44.01171
H         48.16656       46.98783       42.73016
H         48.14053       45.30062       43.32876
H         48.02856       48.73573       44.82721
H         49.17805       48.29409       46.10475
N         45.52731       46.06691       46.21867
C         45.30648       47.48932       46.43855
C         44.97584       47.84256       47.86821
O         44.89666       46.96705       48.72333
H         45.36207       45.40323       46.99198
H         44.49369       47.84805       45.77353
H         46.23498       48.04245       46.20923
N         44.77498       49.14860       48.19993
C         44.47374       49.57503       49.56305
C         44.03225       51.03661       49.61492
O         44.28221       51.78750       48.67815
C         45.72667       49.37882       50.46176
C         45.42255       49.51188       51.93027
C         45.93772       50.57723       52.68692
C         44.62131       48.54553       52.55855
C         45.64013       50.67921       54.05019
C         44.33415       48.64315       53.92086
C         44.83939       49.71368       54.67158
O         44.56341       49.82238       55.98653
H         44.80663       49.84193       47.43603
H         43.61612       48.95287       49.90391
H         46.49705       50.11657       50.14166
H         46.17757       48.37409       50.32446
H         46.55955       51.33238       52.22274
H         44.22792       47.71024       51.99231
H         46.03222       51.50909       54.62445
H         43.71964       47.88547       54.39013
H         44.01433       49.17404       56.45060
N         43.34422       51.50623       50.69212
C         42.90934       52.89585       50.81602
C         44.09884       53.84652       50.81147
O         45.05482       53.62084       51.53646
C         41.99215       53.14896       52.05099
C         40.61576       52.46857       51.83255
C         42.63812       52.74294       53.39267
C         39.56508       52.87711       52.86657
H         43.10223       50.83543       51.43481
H         42.28338       53.14486       49.93110
H         41.80180       54.24611       52.07889
H         40.71946       51.36276       51.81764
H         40.21591       52.78914       50.84442
H         43.61014       53.25248       53.53884
H         41.99558       53.04154       54.24410
H         42.79420       51.64747       53.45680
H         39.44200       53.98196       52.87079
H         38.58909       52.41906       52.60076
H         39.83850       52.53180       53.88276
N         44.08538       54.92643       49.97550
C         45.17103       55.90372       49.81954
C         44.88483       56.85227       48.64961
O         43.79421       56.83359       48.09585
C         45.40790       56.73768       51.10156
O         45.91638       55.95408       52.14791
H         43.24637       55.02680       49.38757
H         46.09682       55.34949       49.55073
H         44.46373       57.25529       51.39435
H         46.15905       57.53226       50.91119
H         45.24048       55.94390       52.87420
N         45.86546       57.68673       48.18766
C         45.74569       58.51983       46.98987
C         44.72288       59.64295       47.09478
O         44.52622       60.32002       46.09456
C         45.45095       57.63470       45.76183
H         46.78177       57.67695       48.65976
H         46.72877       59.00527       46.80466
H         44.45240       57.15491       45.81766
H         45.47241       58.23982       44.83120
H         46.22098       56.83976       45.67545
N         44.02727       59.90892       48.24157
C         42.96088       60.90146       48.32144
C         41.88012       60.52412       47.33100
O         41.52715       61.31219       46.46321
C         43.48875       62.33330       48.12154
H         44.21039       59.35887       49.09166
H         42.51952       60.86130       49.34277
H         44.26983       62.55926       48.87696
H         43.91720       62.48292       47.10988
H         42.65862       63.06156       48.25218
N         41.32277       59.28573       47.41133
C         40.32090       58.79852       46.48123
C         38.96120       59.01083       47.09796
O         38.14521       59.70394       46.50549
C         40.61547       57.32471       46.12697
C         39.65955       56.78256       45.05590
C         40.03604       55.38345       44.66179
O         40.35630       55.13745       43.50965
O         40.02359       54.39163       45.57156
H         41.61317       58.66468       48.18332
H         40.37007       59.37873       45.53114
H         40.55983       56.69011       47.03973
H         41.65370       57.26468       45.72997
H         39.71272       57.43777       44.15865
H         38.61527       56.78385       45.43428
N         38.66265       58.48986       48.31800
C         37.39720       58.74636       48.96678
H         36.56542       58.35262       48.34660
H         37.37617       58.25331       49.96107
H         37.26606       59.84086       49.11313
H         39.36296       57.92083       48.81672
Ca        40.62371       52.31799       44.91186
O         39.02662       52.30764       42.36470
H         38.04545       52.42583       42.30739
H         39.33121       52.27416       41.42334
O         43.31756       53.88032       45.55525
H         43.22484       54.57525       44.85593
H         43.36613       54.38654       46.40475
O         41.35567       51.46428       47.60310
H         41.43107       50.74397       48.27738
H         40.89161       52.20168       48.07348
O         37.83868       51.36248       45.75104
H         37.97472       50.39861       45.93202
H         37.49862       51.39504       44.82166
O         43.26113       50.73229       44.82964
H         44.19380       50.70435       45.15929
H         43.06383       49.80150       44.55779

Ca 1.0



