%chk=apoCaM-CA-Ng.loop3.water3.frame795.chk
%nprocshared=20
%mem=10GB
%nosave
#b3lyp/svp scf=(tight,noincore,xqc) Test 
#IOP(5/87=12) Density=Current Pop=(MK,readradii) iop(6/33=2) iop(6/42=6)

apoCaM-CA-Ng.loop3.water3.frame795 

   0  1 
C        -14.97894      -15.18967       89.95250
C        -16.39552      -15.18732       90.45177
O        -16.99830      -16.24680       90.53388
H        -14.35923      -15.82603       90.62004
H        -14.93797      -15.58956       88.91986
H        -14.54370      -14.16707       89.95778
N        -16.97914      -14.02405       90.84541
C        -18.29643      -13.96111       91.47509
C        -19.40625      -14.37661       90.49529
O        -19.22602      -14.18225       89.30198
C        -18.50089      -12.52132       92.02504
C        -19.37785      -12.43614       93.23959
O        -18.91935      -11.85302       94.36280
O        -20.50199      -12.88198       93.22954
H        -16.42027      -13.15970       90.76601
H        -18.26827      -14.65850       92.32819
H        -18.85296      -11.85820       91.20655
H        -17.52804      -12.11462       92.37871
N        -20.59435      -14.90460       90.93115
C        -21.72980      -15.20411       90.03977
C        -22.89204      -14.23285       90.27336
O        -23.69396      -14.05154       89.36553
C        -22.24651      -16.64871       90.21553
C        -21.27538      -17.75491       89.78138
C        -21.92710      -19.13071       90.02797
C        -21.07312      -20.29007       89.50033
N        -21.73582      -21.57446       89.74058
H        -20.71325      -15.05740       91.94084
H        -21.42583      -15.06456       88.97968
H        -23.16913      -16.76767       89.60425
H        -22.52140      -16.80592       91.27323
H        -20.32098      -17.68537       90.34518
H        -21.06122      -17.63315       88.69759
H        -22.91185      -19.16761       89.51160
H        -22.09761      -19.26580       91.11962
H        -20.08027      -20.28765       90.00099
H        -20.91964      -20.16100       88.40584
H        -21.15039      -22.34514       89.34490
H        -21.85461      -21.73345       90.76764
H        -22.67222      -21.59317       89.27369
N        -23.03016      -13.55655       91.44523
C        -24.00701      -12.51075       91.72652
C        -23.30669      -11.16379       91.94554
O        -23.98706      -10.20038       92.26309
C        -24.89170      -12.90495       92.94928
C        -24.13436      -13.53803       94.10022
O        -23.03020      -12.96361       94.61241
O        -24.46331      -14.64437       94.49347
H        -22.37642      -13.76453       92.20074
H        -24.69119      -12.34388       90.86450
H        -25.63737      -13.65527       92.60364
H        -25.46701      -12.01975       93.29481
N        -21.96154      -11.00313       91.74264
C        -21.25934       -9.73745       91.90356
C        -21.24626       -9.16321       93.31336
O        -20.74176       -8.05708       93.44924
H        -21.40601      -11.78528       91.38046
H        -21.73277       -8.99430       91.22609
H        -20.20385       -9.86006       91.57770
N        -21.80929       -9.79277       94.39016
C        -22.01180       -9.12996       95.67669
C        -21.50600       -9.92913       96.87730
O        -21.85130      -11.09361       97.02213
C        -23.52310       -8.89652       95.85107
C        -23.80678       -8.05862       97.07440
N        -24.52803       -8.55505       98.10461
O        -23.36988       -6.91853       97.13644
H        -22.22269      -10.72261       94.26954
H        -21.53586       -8.12476       95.67509
H        -24.04280       -9.87903       95.91020
H        -23.92271       -8.35589       94.96545
H        -24.89583       -9.51677       98.07818
H        -24.70864       -7.97692       98.93854
N        -20.81829       -9.28557       97.86561
C        -20.52373       -9.85374       99.17575
C        -19.53771      -10.98601       99.12589
O        -18.45799      -10.79568       98.58267
H        -20.58134       -8.29076       97.73147
H        -21.47017      -10.16688       99.66884
H        -20.07034       -9.05758       99.80474
N        -19.81535      -12.18841       99.71806
C        -18.86943      -13.29982       99.68024
C        -18.64174      -13.75351       98.25040
O        -19.27915      -13.25480       97.33361
C        -19.34693      -14.50670      100.53498
C        -19.28268      -14.28940      102.02981
C        -18.05675      -13.98119      102.65076
C        -20.42514      -14.46217      102.82826
C        -17.97809      -13.84557      104.03981
C        -20.34221      -14.33203      104.21976
C        -19.12103      -14.02546      104.83017
O        -19.05589      -13.91620      106.17293
H        -20.71149      -12.30938      100.21505
H        -17.88978      -12.94954      100.07117
H        -18.68218      -15.37717      100.36139
H        -20.36456      -14.81082      100.20699
H        -17.15455      -13.86020      102.06504
H        -21.37557      -14.71909      102.37857
H        -17.02578      -13.61334      104.50105
H        -21.22645      -14.48180      104.82620
H        -18.22782      -13.71927      106.63440
N        -17.70345      -14.70605       98.00028
C        -17.33963      -15.18820       96.68124
C        -18.59105      -15.82190       95.99797
O        -19.13954      -14.97105       95.02664
C        -16.63014      -14.06111       95.85460
C        -16.06909      -14.54714       94.49351
C        -15.52953      -13.35441       96.66935
C        -14.90549      -15.53773       94.57267
H        -17.18216      -15.10785       98.79403
H        -16.59128      -15.99117       96.86043
H        -17.38272      -13.28169       95.63311
H        -15.72319      -13.66228       93.91482
H        -16.87547      -15.02431       93.91683
H        -14.74144      -14.06597       96.98812
H        -15.07014      -12.54204       96.06622
H        -15.95428      -12.88277       97.58034
H        -14.60210      -15.81728       93.54159
H        -14.02713      -15.08145       95.07131
H        -15.19231      -16.46221       95.10985
N        -18.27662      -17.14393       95.43862
C        -19.40845      -17.81491       94.77221
C        -19.44927      -19.29517       95.10442
O        -20.37843      -19.96257       94.66847
C        -19.33146      -17.63942       93.24153
O        -18.20391      -18.28990       92.71029
H        -17.40575      -17.14906       94.86484
H        -20.36064      -17.38228       95.14536
H        -19.32903      -16.56587       92.97374
H        -20.23306      -18.07643       92.76461
H        -17.47050      -17.62382       92.66174
N        -18.47484      -19.88966       95.85197
C        -18.47171      -21.31748       96.14628
C        -19.64660      -21.71827       97.02500
O        -20.24435      -20.84276       97.63611
C        -17.17400      -21.66956       96.87268
H        -17.68463      -19.32253       96.19170
H        -18.52238      -21.85849       95.17673
H        -17.07691      -21.07160       97.80367
H        -17.17132      -22.72441       97.16907
H        -16.30263      -21.45993       96.21556
N        -20.07722      -23.01132       97.15155
C        -19.62590      -24.14182       96.33806
C        -19.75660      -25.44730       97.11653
O        -20.82309      -25.67128       97.67341
C        -20.52844      -24.22810       95.10362
H        -20.92291      -23.15411       97.72693
H        -18.59985      -23.99890       95.95815
H        -20.21452      -25.07710       94.45901
H        -21.59078      -24.37133       95.39735
H        -20.45215      -23.29296       94.50926
N        -18.79332      -26.41669       97.16673
C        -17.50087      -26.38498       96.48930
C        -16.58059      -25.36730       97.12160
O        -15.97993      -24.58862       96.39515
C        -16.84515      -27.78442       96.52980
C        -15.57438      -27.84677       95.66403
C        -15.00547      -29.23529       95.63929
O        -14.91260      -29.84173       94.58365
O        -14.58520      -29.81546       96.77935
H        -19.03679      -27.27983       97.67994
H        -17.66330      -26.15773       95.41131
H        -17.57188      -28.51729       96.11337
H        -16.61580      -28.07764       97.57835
H        -14.80105      -27.15244       96.05516
H        -15.82897      -27.53927       94.62482
N        -16.41876      -25.32875       98.47541
C        -15.57297      -24.36987       99.15724
H        -15.04449      -23.69344       98.45357
H        -16.19747      -23.74880       99.83447
H        -14.81727      -24.91040       99.76384
H        -16.94162      -25.99591       99.06272
Ca       -21.31707      -14.26839       95.41037
O        -22.43119      -16.60526       93.91745
H        -22.87715      -17.40731       94.28642
H        -23.09399      -16.22102       93.29449
O        -23.44366      -13.50194       97.72990
H        -24.35039      -13.78935       97.45527
H        -23.37971      -13.75358       98.68523
O        -21.24976      -16.19812       97.78819
H        -21.66830      -16.86623       97.18951
H        -21.97130      -15.94191       98.41516

Ca 1.0



