%chk=apoCaM-CA-Ng.loop4.water6.frame1041.chk
%nprocshared=20
%mem=10GB
%nosave
#b3lyp/svp scf=(tight,noincore,xqc) Test 
#IOP(5/87=12) Density=Current Pop=(MK,readradii) iop(6/33=2) iop(6/42=6)

apoCaM-CA-Ng.loop4.water6.frame1041 

   -3  1 
C         47.90907       69.58349       61.90956
C         49.33676       69.97317       61.63340
O         49.93631       69.39142       60.74094
H         47.23323       70.45241       61.78519
H         47.58270       68.78252       61.21150
H         47.82062       69.19037       62.94381
N         49.98950       70.92774       62.35956
C         49.38049       71.68655       63.45350
C         48.45119       72.78720       62.96172
O         47.88398       73.47381       63.80140
C         50.47237       72.31305       64.35370
C         51.38136       71.24006       64.87274
O         50.92137       70.28339       65.47650
O         52.69383       71.27456       64.59270
H         50.98802       71.08406       62.14717
H         48.80502       70.98811       64.10042
H         50.00107       72.82658       65.21926
H         51.06413       73.05882       63.77726
N         48.23674       73.02781       61.63433
C         47.37434       74.10894       61.17288
C         47.97453       75.45626       61.55807
O         47.30599       76.22294       62.23700
C         47.01489       73.98656       59.64514
C         48.22649       74.06893       58.67100
C         46.20186       72.69245       59.42561
C         47.85981       73.95520       57.19000
H         48.68348       72.42521       60.93362
H         46.39362       74.02094       61.69613
H         46.33357       74.83253       59.40172
H         48.96755       73.27603       58.89717
H         48.70475       75.06039       58.76732
H         45.32334       72.67004       60.10535
H         45.79414       72.64085       58.39648
H         46.81944       71.78969       59.61130
H         47.13218       74.74552       56.90971
H         48.77775       74.08333       56.57704
H         47.44287       72.95700       56.94787
N         49.22631       75.81115       61.15038
C         49.81665       77.12617       61.37389
C         51.22887       76.95847       61.91914
O         51.96605       76.14336       61.38336
C         49.82437       77.86699       60.01981
C         50.01670       79.35691       60.16532
O         51.12931       79.86971       60.71571
O         49.14159       80.11787       59.78367
H         49.76968       75.13928       60.59278
H         49.18554       77.73105       62.06243
H         48.82704       77.72307       59.54585
H         50.58170       77.43073       59.33508
N         51.70287       77.70879       62.95400
C         53.05337       77.53648       63.48713
C         54.18655       77.79125       62.49072
O         55.32914       77.56246       62.85973
H         51.08657       78.40988       63.39234
H         53.14393       76.49192       63.85601
H         53.19701       78.21627       64.35500
N         53.96049       78.26089       61.22937
C         54.98864       78.48271       60.21609
C         54.64269       77.68056       58.96337
O         53.46650       77.58389       58.64421
C         55.04057       79.97869       59.85927
C         55.44542       80.81238       61.04227
O         54.61733       81.76336       61.51366
O         56.53082       80.63919       61.57435
H         53.00489       78.49183       60.95254
H         55.99032       78.18957       60.59221
H         54.04516       80.31104       59.49038
H         55.78258       80.14740       59.04962
N         55.58133       77.12264       58.14444
C         57.01241       77.27923       58.33604
C         57.78659       76.67456       57.17666
O         57.49086       77.05464       56.05221
H         55.24545       76.60603       57.31511
H         57.28453       76.84775       59.30730
H         57.25092       78.36339       58.35174
N         58.79377       75.75516       57.30277
C         59.35435       75.22375       58.54236
C         58.29742       74.45121       59.29956
O         57.97725       74.76673       60.43831
C         60.08578       76.32713       59.35499
C         61.17925       77.04999       58.53619
C         62.36264       76.19442       58.13687
N         63.34629       76.72808       57.37665
O         62.45204       75.03093       58.49996
H         59.22311       75.40793       56.43023
H         60.12193       74.46976       58.27198
H         60.54237       75.88624       60.26750
H         59.37338       77.10167       59.69182
H         61.57288       77.89400       59.14173
H         60.71792       77.48065       57.62122
H         63.29335       77.70703       57.05944
H         64.16062       76.15991       57.09915
N         57.71747       73.39000       58.67996
C         56.63183       72.59150       59.23156
C         55.44827       72.65079       58.26970
O         55.53676       73.34780       57.26348
C         57.12345       71.13660       59.50557
C         58.25836       71.13281       60.54131
C         57.58284       70.39936       58.24089
H         58.05818       73.14105       57.73725
H         56.28783       73.00523       60.20594
H         56.28170       70.55943       59.94313
H         59.15341       71.66492       60.15449
H         57.93050       71.63169       61.47703
H         58.54886       70.08924       60.78885
H         56.76135       70.37030       57.50585
H         58.46460       70.88832       57.77814
H         57.85791       69.35156       58.48761
N         54.31400       71.92769       58.48905
C         53.18410       71.92730       57.56479
C         53.06665       70.61327       56.80788
O         52.19263       70.51061       55.96508
C         51.87515       72.17589       58.34008
C         51.90019       73.47028       59.09888
N         52.00217       74.64824       58.44420
O         51.81472       73.45453       60.31759
H         54.26107       71.32000       59.32208
H         53.31116       72.71565       56.78963
H         51.72141       71.33635       59.05622
H         51.00915       72.19410       57.64355
H         52.06440       74.68074       57.41698
H         52.00900       75.53300       58.96486
N         53.88641       69.55220       57.08008
C         53.69616       68.25233       56.44335
C         54.37557       67.13880       57.22992
O         55.13255       67.39073       58.15154
C         54.12066       68.23595       54.95444
C         55.60689       68.43192       54.74984
C         56.40462       67.36008       54.31063
C         56.21034       69.67865       54.98290
C         57.78016       67.52824       54.12550
C         57.58627       69.84716       54.79115
C         58.37636       68.76983       54.36555
O         59.70443       68.91511       54.18315
H         54.58042       69.63993       57.82602
H         52.60946       68.02306       56.51172
H         53.56539       68.99434       54.36334
H         53.82424       67.24751       54.54213
H         55.96572       66.38819       54.12156
H         55.61906       70.52468       55.30738
H         58.38296       66.69154       53.79588
H         58.03657       70.81426       54.97568
H         60.15734       69.75618       54.33942
N         54.03629       65.84985       56.94818
C         54.45758       64.71483       57.75009
C         53.21001       64.25897       58.47603
O         52.62832       63.23072       58.16300
C         55.11634       63.66418       56.84047
C         55.69776       62.49528       57.65035
C         56.41481       61.52622       56.75727
O         56.01009       60.24401       56.68964
O         57.37788       61.89078       56.10102
H         53.35553       65.67068       56.19627
H         55.21220       65.00648       58.51399
H         55.95322       64.16431       56.30314
H         54.38864       63.29352       56.08553
H         54.88492       61.96541       58.18980
H         56.42147       62.88198       58.40100
N         52.71162       65.07855       59.44186
C         51.40801       64.91233       60.06606
C         50.34863       65.27188       59.04415
O         49.49647       64.44634       58.74704
C         51.29612       65.85093       61.28547
C         52.25028       65.42313       62.41664
C         52.36268       66.52254       63.42468
O         51.36847       66.96920       63.97578
O         53.56376       67.09407       63.63384
H         53.27206       65.90536       59.70234
H         51.27144       63.86813       60.42672
H         50.25808       65.85593       61.68704
H         51.53946       66.88713       60.95920
H         53.26952       65.24349       62.01333
H         51.88839       64.48265       62.88458
N         50.35749       66.50036       58.45073
C         49.38105       66.89534       57.46074
H         48.36185       66.86970       57.90034
H         49.59323       67.93043       57.11513
H         49.43086       66.21352       56.58575
H         51.08968       67.18268       58.70044
Ca        53.56765       69.26267       64.17487
O         55.83937       70.39569       62.68625
H         56.63801       70.17362       63.22733
H         55.68974       71.36137       62.84694
O         53.85095       70.38817       67.98472
H         54.60765       70.35507       68.62254
H         53.04805       70.23729       68.54436
O         56.02127       66.85194       65.44600
H         55.53252       66.00070       65.31660
H         56.49646       66.99883       64.58935
O         56.75857       69.81455       66.28401
H         57.50360       69.90591       65.63882
H         57.08818       69.16067       66.95105
O         52.31279       67.88864       67.01443
H         52.45178       67.00713       66.58557
H         51.41255       67.82832       67.42232
O         54.88820       72.73524       65.94651
H         54.10444       73.31877       65.78605
H         55.18183       72.96255       66.86488

Ca 1.0



