%chk=apoCaM-CA-Ng.loop3.water3.frame745.chk
%nprocshared=20
%mem=10GB
%nosave
#b3lyp/svp scf=(tight,noincore,xqc) Test 
#IOP(5/87=12) Density=Current Pop=(MK,readradii) iop(6/33=2) iop(6/42=6)

apoCaM-CA-Ng.loop3.water3.frame745 

   0  1 
C        101.01020       12.70696      -14.52467
C        102.07522       11.84589      -15.13360
O        102.67220       12.23446      -16.12773
H        100.04772       12.15500      -14.50381
H        101.30207       12.96635      -13.48427
H        100.87962       13.64622      -15.10206
N        102.38176       10.65297      -14.55767
C        103.45363        9.79116      -15.03447
C        103.16852        9.29214      -16.44798
O        102.15124        8.64730      -16.66121
C        103.64135        8.61788      -14.05103
C        104.87069        7.80237      -14.30799
O        105.15274        6.77119      -13.49209
O        105.63168        8.07816      -15.21989
H        101.85815       10.37721      -13.71158
H        104.38751       10.38876      -15.01299
H        102.74629        7.96065      -14.06970
H        103.75029        9.02524      -13.02488
N        104.02727        9.58163      -17.46888
C        103.78855        9.20585      -18.86102
C        103.79678        7.69230      -19.07185
O        103.22538        7.23357      -20.05075
C        104.84772        9.88408      -19.76442
C        104.45845        9.91952      -21.24880
C        105.51092       10.69388      -22.06178
C        105.10370       10.92989      -23.52659
N        103.92101       11.78927      -23.64010
H        104.85566       10.14871      -17.25474
H        102.78752        9.61647      -19.12227
H        105.84103        9.40247      -19.61617
H        104.93379       10.94722      -19.44652
H        103.48187       10.44063      -21.30763
H        104.34859        8.89691      -21.66675
H        106.46450       10.12121      -22.04133
H        105.69792       11.68638      -21.59608
H        104.92149        9.96152      -24.04169
H        105.95452       11.43514      -24.03597
H        104.06640       12.67945      -23.10954
H        103.76318       12.02332      -24.64636
H        103.06838       11.30068      -23.28744
N        104.46097        6.86418      -18.21216
C        104.53076        5.41014      -18.34691
C        103.89653        4.68059      -17.16443
O        103.83204        3.45991      -17.22089
C        105.99564        4.95171      -18.56088
C        106.97482        5.55596      -17.57902
O        106.75701        5.48308      -16.25096
O        107.94103        6.16709      -17.99919
H        104.96503        7.28501      -17.42399
H        103.94912        5.07321      -19.23429
H        106.31141        5.24863      -19.58570
H        106.04232        3.84165      -18.51761
N        103.34752        5.33121      -16.09835
C        102.60844        4.62597      -15.06310
C        103.42847        3.70288      -14.17914
O        102.80202        2.93752      -13.45683
H        103.35650        6.35667      -16.05825
H        101.81155        4.03362      -15.56360
H        102.09900        5.35714      -14.39790
N        104.79391        3.74640      -14.09473
C        105.52403        2.89857      -13.14397
C        106.92550        3.40279      -12.82484
O        107.41557        4.29172      -13.49468
C        105.59445        1.43654      -13.65230
C        106.68554        1.22011      -14.68808
N        106.72093        1.91289      -15.84999
O        107.57398        0.41531      -14.44801
H        105.29115        4.46422      -14.63311
H        104.95863        2.94393      -12.18576
H        104.60939        1.11736      -14.05301
H        105.82470        0.77762      -12.78715
H        106.00256        2.60921      -16.07961
H        107.49139        1.76433      -16.51951
N        107.64266        2.85657      -11.80698
C        109.00073        3.26186      -11.46957
C        109.08577        4.72691      -11.09749
O        108.34079        5.15230      -10.22518
H        107.20896        2.11082      -11.24033
H        109.68328        3.03234      -12.31582
H        109.33341        2.66563      -10.59277
N        110.00171        5.55392      -11.69243
C        110.14748        6.95938      -11.31310
C        109.14316        7.86771      -12.08064
O        107.92944        7.21202      -12.29739
C        111.59194        7.46394      -11.58036
C        112.65876        6.83350      -10.71751
C        112.60891        6.95781       -9.31679
C        113.75190        6.17628      -11.30593
C        113.63380        6.43474       -8.52230
C        114.77823        5.65805      -10.50912
C        114.72546        5.78702       -9.11728
O        115.73085        5.29490       -8.36517
H        110.66569        5.15000      -12.37086
H        109.93962        7.05502      -10.22401
H        111.67546        8.54593      -11.36905
H        111.82393        7.33103      -12.65854
H        111.78695        7.47367       -8.83707
H        113.82278        6.08273      -12.38216
H        113.58464        6.54494       -7.44595
H        115.62260        5.16653      -10.97566
H        115.74085        5.37715       -7.40071
N        108.94055        9.11977      -11.31375
C        108.03176       10.16178      -11.84063
C        108.21735       10.38775      -13.32546
O        107.94226        9.47811      -14.09275
C        106.53973        9.89181      -11.49085
C        105.61593       11.07713      -11.90365
C        106.36334        9.55955       -9.99929
C        105.92765       12.42227      -11.23135
H        109.86447        9.58448      -11.18424
H        108.30842       11.09177      -11.29996
H        106.19262        9.00110      -12.05359
H        104.56501       10.81264      -11.65969
H        105.67140       11.22443      -13.00306
H        105.29241        9.36385       -9.77681
H        106.93006        8.64093       -9.73841
H        106.72401       10.38462       -9.35211
H        105.19730       13.18306      -11.57706
H        105.84716       12.35032      -10.12785
H        106.93644       12.79235      -11.50351
N        108.68741       11.57530      -13.80704
C        108.87920       11.79664      -15.23336
C        109.78455       12.97924      -15.48977
O        109.35857       14.11793      -15.34610
C        107.53996       12.03202      -15.96503
O        106.66449       10.96040      -15.80695
H        108.97962       12.30521      -13.13922
H        109.38563       10.89834      -15.65074
H        107.70890       12.22269      -17.05026
H        107.03912       12.93465      -15.55330
H        106.97857       10.25341      -16.42207
N        111.06746       12.76031      -15.88852
C        111.97567       13.81281      -16.31896
C        112.57439       13.43723      -17.67567
O        112.38646       12.30529      -18.10186
C        113.06697       13.97818      -15.25998
H        111.42045       11.79032      -15.89309
H        111.41637       14.76815      -16.41920
H        113.80310       14.74929      -15.54776
H        112.60097       14.28362      -14.29752
H        113.61033       13.02311      -15.10515
N        113.29186       14.29610      -18.45712
C        113.52190       15.70836      -18.18523
C        115.01054       16.02762      -18.18827
O        115.76813       15.28237      -18.79427
C        112.83731       16.50801      -19.30166
H        113.65085       13.92745      -19.35316
H        113.07148       16.00994      -17.22624
H        113.26009       16.22401      -20.29103
H        111.74928       16.28410      -19.31186
H        112.96795       17.59993      -19.17520
N        115.52681       17.15825      -17.62059
C        114.77736       18.07729      -16.76990
C        114.56668       17.45415      -15.40134
O        113.43685       17.39652      -14.93614
C        115.45306       19.47021      -16.69147
C        116.80539       19.54575      -15.96396
C        117.36413       20.93764      -16.03407
O        117.57129       21.64106      -14.90453
O        117.64172       21.43518      -17.11393
H        116.52854       17.34703      -17.77496
H        113.79725       18.30408      -17.23753
H        114.75486       20.16520      -16.17252
H        115.57522       19.83488      -17.73579
H        117.54249       18.85158      -16.41536
H        116.66375       19.28237      -14.89501
N        115.62296       16.93681      -14.71068
C        115.48887       16.34180      -13.39983
H        115.11459       17.09701      -12.67793
H        114.79216       15.48023      -13.43501
H        116.47954       15.97747      -13.05132
H        116.56314       16.95194      -15.13286
Ca       107.83934        6.60312      -14.54921
O        108.81692        8.73056      -17.42130
H        109.04484        9.53867      -17.94372
H        107.85827        8.57850      -17.61631
O        110.47843        7.84914      -15.05325
H        111.31375        7.32373      -15.12870
H        110.77700        8.77024      -14.84725
O        109.82592        4.66414      -16.09409
H        109.59490        4.21683      -16.94675
H        110.45131        4.03992      -15.64869

Ca 1.0



