%chk=apoCaM-CA-Ng.loop3.water3.frame619.chk
%nprocshared=20
%mem=10GB
%nosave
#b3lyp/svp scf=(tight,noincore,xqc) Test 
#IOP(5/87=12) Density=Current Pop=(MK,readradii) iop(6/33=2) iop(6/42=6)

apoCaM-CA-Ng.loop3.water3.frame619 

   0  1 
C         93.33237      128.79342       65.90898
C         94.16504      129.86235       65.26922
O         94.18171      130.98528       65.75414
H         92.58251      128.42063       65.18069
H         93.98826      127.95228       66.21921
H         92.80510      129.18387       66.80492
N         94.91034      129.56620       64.17011
C         95.77866      130.53574       63.51888
C         94.95174      131.66849       62.92616
O         94.08150      131.41516       62.10476
C         96.63433      129.83455       62.44453
C         97.71147      130.71441       61.87995
O         98.49445      130.26069       61.06190
O         97.82702      131.99873       62.26446
H         94.88301      128.59878       63.81116
H         96.48680      130.92409       64.28554
H         95.98819      129.45691       61.62280
H         97.14527      128.96916       62.91626
N         95.17313      132.95097       63.32354
C         94.39558      134.09468       62.85154
C         94.54810      134.29097       61.35084
O         93.54869      134.48255       60.67272
C         94.80152      135.39639       63.59015
C         94.61711      135.27310       65.11584
C         94.85339      136.60158       65.84623
C         94.82194      136.44230       67.37988
N         93.55017      135.90667       67.87187
H         95.92883      133.11211       64.00441
H         93.31994      133.93215       63.08909
H         94.14862      136.21855       63.21954
H         95.85383      135.66710       63.36566
H         95.32896      134.52672       65.52258
H         93.58074      134.93198       65.31885
H         94.08526      137.33981       65.52702
H         95.85492      137.00053       65.57329
H         94.99684      137.44099       67.83772
H         95.65012      135.77178       67.70111
H         92.75394      136.50247       67.54965
H         93.41581      134.92113       67.55142
H         93.56816      135.89832       68.91724
N         95.78133      134.24791       60.77278
C         96.04303      134.54608       59.36272
C         96.42901      133.33473       58.51252
O         96.58508      133.51360       57.31139
C         97.15780      135.62257       59.26791
C         98.50657      135.18123       59.82533
O         98.64746      133.96508       60.40544
O         99.46708      135.92497       59.72868
H         96.56695      134.01419       61.38797
H         95.11891      134.95186       58.89446
H         96.82831      136.53921       59.80227
H         97.29503      135.88913       58.19620
N         96.61452      132.08753       59.03266
C         97.00204      130.93639       58.21835
C         98.36457      131.05892       57.53393
O         98.69041      130.17754       56.75221
H         96.44586      131.93707       60.03230
H         96.22768      130.79448       57.43382
H         97.01198      130.02087       58.84786
N         99.19478      132.12014       57.74863
C        100.42830      132.38427       57.02068
C        101.59895      132.49767       57.98516
O        101.56736      133.34907       58.85972
C        100.23433      133.72194       56.27001
C        101.40566      134.17580       55.43249
N        101.33725      135.36243       54.78660
O        102.41392      133.49210       55.33413
H         98.92173      132.82923       58.42566
H        100.62662      131.58482       56.27327
H        100.01826      134.51991       57.01551
H         99.34994      133.63205       55.60244
H        100.49647      135.95403       54.86559
H        102.12679      135.69633       54.21492
N        102.70349      131.71589       57.83900
C        103.88276      131.85073       58.67925
C        103.63921      131.36634       60.08822
O        103.30829      130.19903       60.24298
H        102.73986      131.03859       57.06203
H        104.24281      132.90219       58.65664
H        104.69207      131.21385       58.25961
N        103.86859      132.17434       61.16971
C        103.80755      131.67532       62.54581
C        102.35545      131.41544       63.05135
O        101.55036      130.85383       62.06546
C        104.48763      132.65727       63.52974
C        105.95575      132.88848       63.24780
C        106.87258      131.82228       63.29360
C        106.42884      134.18291       62.97208
C        108.23434      132.04855       63.06640
C        107.79116      134.40683       62.74811
C        108.69911      133.33952       62.79611
O        110.01646      133.54271       62.59069
H        104.21188      133.13227       60.99988
H        104.37659      130.71954       62.56891
H        104.42014      132.25509       64.56393
H        103.93249      133.62058       63.50899
H        106.53852      130.81662       63.51424
H        105.74609      135.02254       62.93925
H        108.93081      131.22012       63.10818
H        108.14037      135.41110       62.54336
H        110.38062      134.42167       62.41217
N        102.39944      130.59344       64.28794
C        101.19019      129.92647       64.82770
C        100.07870      130.91393       65.09845
O         99.60159      131.54027       64.16792
C        100.67033      128.71819       63.97993
C         99.48463      127.98487       64.67685
C        101.79057      127.71875       63.63991
C         99.80397      127.35485       66.03974
H        103.19127      129.91113       64.27514
H        101.51541      129.50415       65.80082
H        100.26821      129.08905       63.01592
H         99.12079      127.17896       64.00330
H         98.64157      128.69368       64.81966
H        102.27750      127.32925       64.55772
H        101.37928      126.86688       63.05807
H        102.56476      128.19541       63.00439
H        100.09855      128.11906       66.78583
H         98.89594      126.84924       66.42964
H        100.60704      126.59530       65.95477
N         99.61520      131.09941       66.36694
C         98.56120      132.04917       66.69680
C         99.14718      133.28403       67.35697
O         98.40250      134.22587       67.59401
C         97.51134      131.37657       67.59170
O         96.97144      130.25362       66.94370
H        100.06197      130.58690       67.14321
H         98.05838      132.40162       65.76891
H         96.68548      132.08340       67.82155
H         97.98382      131.09233       68.56322
H         97.19402      129.45546       67.49116
N        100.48249      133.37112       67.63486
C        101.14236      134.56837       68.12681
C        102.20743      134.98946       67.12476
O        102.64343      134.14692       66.35082
C        101.78520      134.25657       69.47245
H        101.09713      132.56383       67.46097
H        100.40113      135.38649       68.24271
H        101.00091      133.99588       70.21511
H        102.49195      133.40471       69.38022
H        102.35671      135.12724       69.82633
N        102.65125      136.27027       66.98502
C        102.22255      137.43062       67.75805
C        103.43614      138.28026       68.11496
O        104.22459      138.54334       67.21631
C        101.28538      138.26501       66.88110
H        103.29635      136.44670       66.19750
H        101.64300      137.14862       68.65535
H        100.39188      137.66298       66.60804
H        100.94307      139.16448       67.43658
H        101.79195      138.58834       65.94620
N        103.65675      138.84144       69.34047
C        102.76776      138.75791       70.49244
C        102.83858      137.40852       71.17395
O        101.79366      136.83149       71.43977
C        102.99576      139.91771       71.50367
C        104.28531      139.94445       72.35220
C        105.54472      140.18073       71.57102
O        106.55224      139.28902       71.62461
O        105.67570      141.19876       70.90984
H        104.46919      139.46755       69.40095
H        101.72739      138.94351       70.14056
H        102.15621      139.86594       72.23246
H        102.89329      140.88499       70.96374
H        104.36631      139.01108       72.94600
H        104.19222      140.78313       73.07564
N        104.04153      136.85316       71.49856
C        104.18776      135.58254       72.17963
H        104.75171      135.73741       73.12381
H        103.21084      135.11798       72.42741
H        104.75892      134.88223       71.53456
H        104.90767      137.34697       71.24363
Ca       100.35260      132.62693       61.16953
O         98.41086      135.50188       62.96927
H         98.27478      136.36757       62.50862
H         98.39950      135.72749       63.93293
O        100.95468      134.62214       63.84371
H        101.61789      135.35494       63.89669
H        101.47843      133.79969       64.00298
O        101.93209      135.74334       61.19564
H        102.83472      136.09818       61.38971
H        101.96963      135.49151       60.24001

Ca 1.0



