%chk=apoCaM-CA-Ng.loop4.water5.frame832.chk
%nprocshared=20
%mem=10GB
%nosave
#b3lyp/svp scf=(tight,noincore,xqc) Test 
#IOP(5/87=12) Density=Current Pop=(MK,readradii) iop(6/33=2) iop(6/42=6)

apoCaM-CA-Ng.loop4.water5.frame832 

   -3  1 
C         50.78048       86.23833       60.00567
C         51.36769       86.75474       58.72469
O         52.55392       87.04952       58.70490
H         49.70233       86.00034       59.89320
H         51.31735       85.31569       60.31158
H         50.89206       86.99776       60.80435
N         50.59637       86.87024       57.60236
C         51.09226       87.32723       56.30632
C         52.19424       86.41284       55.82383
O         53.29960       86.87657       55.57192
C         51.53886       88.80796       56.35565
C         50.41719       89.74619       56.69098
O         49.13154       89.33606       56.72027
O         50.68062       90.90250       56.97866
H         49.60395       86.59521       57.65558
H         50.27143       87.25709       55.55839
H         51.96938       89.12953       55.38237
H         52.33202       88.91944       57.12453
N         51.93839       85.08513       55.63928
C         52.91984       84.17131       55.06554
C         52.41263       83.66795       53.71456
O         51.20572       83.68266       53.51202
C         53.24081       82.97577       56.01954
C         52.02193       82.03563       56.24327
C         53.80548       83.48369       57.35660
C         52.40430       80.69727       56.88283
H         50.99632       84.72743       55.86075
H         53.85389       84.73639       54.89898
H         54.03611       82.38370       55.52767
H         51.56943       81.76858       55.26666
H         51.24466       82.54198       56.85554
H         54.13059       82.64565       58.00592
H         54.69523       84.11767       57.16827
H         53.04579       84.07902       57.90780
H         53.14051       80.16920       56.23787
H         52.83111       80.82329       57.89654
H         51.50091       80.05635       56.96785
N         53.21776       83.15266       52.73846
C         54.67435       83.16277       52.72447
C         55.13433       83.79720       51.42007
O         54.75959       83.31616       50.35861
C         55.22119       81.72663       52.84921
C         56.72514       81.66507       52.99815
O         57.32431       80.47020       53.15143
O         57.40746       82.67765       53.01064
H         52.75074       82.74807       51.91124
H         55.08646       83.72310       53.58230
H         54.90908       81.12340       51.97161
H         54.79197       81.25568       53.75597
N         55.99350       84.84838       51.42282
C         56.53947       85.40690       50.19350
C         57.75229       86.22454       50.52985
O         57.80529       87.41036       50.24082
H         56.33321       85.20109       52.33209
H         55.76163       85.98651       49.65042
H         56.89591       84.58335       49.53580
N         58.76801       85.60030       51.18618
C         59.97516       86.24028       51.68746
C         60.90080       85.18368       52.28035
O         62.05502       85.13798       51.87884
C         59.66013       87.39947       52.67140
C         58.71961       87.07597       53.80563
O         57.64283       87.64687       53.87706
O         59.06612       86.21641       54.77807
H         58.65104       84.58923       51.35471
H         60.52322       86.70682       50.83703
H         59.19525       88.21930       52.08388
H         60.60942       87.81164       53.07707
N         60.45393       84.24531       53.17059
C         61.31821       83.20049       53.69752
C         62.33063       83.73023       54.68995
O         63.23960       82.99453       55.04483
H         59.46163       84.22602       53.44020
H         61.82783       82.70151       52.84415
H         60.71257       82.42972       54.22206
N         62.20933       84.98160       55.22070
C         63.13615       85.58629       56.16341
C         63.23141       84.83642       57.49020
O         64.19494       85.04728       58.21096
C         64.50342       85.87697       55.49950
C         64.30515       86.66365       54.18743
C         65.57790       87.27355       53.66395
N         66.64561       86.51074       53.33943
O         65.63936       88.48602       53.52127
H         61.41276       85.56843       54.94901
H         62.73232       86.58905       56.42937
H         65.06968       84.94281       55.29427
H         65.09384       86.49743       56.20870
H         63.58034       87.48952       54.36207
H         63.87802       85.98935       53.41740
H         66.61938       85.48741       53.44695
H         67.50498       86.95234       52.97895
N         62.22037       84.01722       57.91611
C         62.22498       83.33841       59.21660
C         61.06159       83.77627       60.11141
O         61.03348       83.33473       61.25625
C         62.22076       81.79115       59.02826
C         60.99436       81.28212       58.24699
C         63.50909       81.31611       58.34290
H         61.40588       83.87763       57.30477
H         63.14638       83.60242       59.77945
H         62.20035       81.31913       60.03622
H         60.05247       81.58754       58.74855
H         60.98827       81.66454       57.20472
H         61.00997       80.17237       58.19598
H         64.39444       81.62559       58.93789
H         63.51750       80.20744       58.26685
H         63.59873       81.73986       57.32241
N         60.05776       84.59577       59.68147
C         58.89915       84.96328       60.49603
C         58.68923       86.47618       60.49975
O         59.36183       87.17352       59.74477
C         57.67979       84.24382       59.87295
C         56.36326       84.51846       60.55015
N         55.37327       85.15761       59.88312
O         56.18807       84.16539       61.70706
H         60.06199       84.92995       58.70547
H         59.03204       84.62293       61.54783
H         57.85657       83.14567       59.89142
H         57.61237       84.55117       58.80619
H         55.51209       85.47472       58.91241
H         54.46968       85.35119       60.33776
N         57.75485       87.05928       61.31071
C         57.38550       88.47153       61.21842
C         56.46127       88.86239       62.35891
O         55.46494       88.17742       62.56025
C         56.68284       88.73456       59.85770
C         56.63414       90.20926       59.52470
C         55.80728       91.10724       60.22292
C         57.45857       90.70117       58.49757
C         55.82624       92.47163       59.91264
C         57.47761       92.06133       58.19108
C         56.66867       92.95297       58.89898
O         56.71250       94.26595       58.59741
H         57.27576       86.46928       62.00928
H         58.31473       89.08286       61.26967
H         55.67146       88.27138       59.81262
H         57.27313       88.23845       59.06291
H         55.14842       90.76001       61.00524
H         58.10583       90.03312       57.94259
H         55.19073       93.15372       60.46347
H         58.13120       92.42117       57.40677
H         56.18186       94.92161       59.07092
N         56.68823       89.98514       63.10585
C         55.79887       90.41013       64.18251
C         55.04663       91.66809       63.77361
O         55.68170       92.71103       63.68479
C         56.59361       90.71047       65.47117
C         57.35539       89.50248       66.01771
C         58.15181       89.90444       67.22849
O         57.53040       90.40105       68.31595
O         59.36754       89.79393       67.22806
H         57.48818       90.59183       62.86457
H         55.08721       89.60610       64.40875
H         55.88971       91.07467       66.25363
H         57.32666       91.52226       65.25914
H         58.04512       89.11244       65.23821
H         56.63923       88.70089       66.29705
N         53.71135       91.70160       63.47985
C         52.83053       90.54286       63.34112
C         52.60830       89.78870       64.63771
O         52.17990       90.38150       65.61757
C         51.47621       90.98562       62.74647
C         50.60930       89.77724       62.38080
C         49.44631       90.18281       61.53377
O         48.54801       90.89005       61.96030
O         49.45472       89.77335       60.25884
H         53.31989       92.62448       63.22995
H         53.29202       89.86851       62.58586
H         51.69728       91.53951       61.80541
H         50.92715       91.66668       63.43323
H         50.26612       89.21900       63.27706
H         51.23691       89.09410       61.76786
N         52.85027       88.44558       64.68108
C         52.65863       87.62276       65.85536
H         52.31044       88.20869       66.73010
H         51.90722       86.83605       65.63093
H         53.62004       87.13159       66.11501
H         53.17802       87.96590       63.82940
Ca        48.05087       90.01740       58.54689
O         47.90245       92.84907       55.94142
H         48.69929       93.40591       55.75326
H         48.27216       91.98123       56.24043
O         49.68211       92.88351       59.16153
H         49.36684       93.43624       58.40299
H         50.66868       92.89004       59.07928
O         45.50326       90.33152       56.92702
H         44.61910       90.49820       57.33996
H         45.41394       90.66988       56.00101
O         46.53299       93.06379       58.95952
H         45.55232       92.99186       59.07443
H         46.76265       93.95056       59.33550
O         45.53564       90.43430       60.38800
H         45.36359       90.02981       61.27489
H         44.64877       90.45732       59.94842

Ca 1.0



