%chk=apoCaM-CA-Ng.loop1.water1.frame809.chk
%nprocshared=20
%mem=10GB
%nosave
#b3lyp/svp scf=(tight,noincore,xqc) Test 
#IOP(5/87=12) Density=Current Pop=(MK,readradii) iop(6/33=2) iop(6/42=6)

apoCaM-CA-Ng.loop1.water1.frame809 

   0  1 
C         27.35213       85.55601       56.32146
C         27.33265       86.89526       55.65025
O         28.09836       87.76225       56.04820
H         26.60207       84.86875       55.87752
H         28.35968       85.10337       56.20729
H         27.12760       85.68111       57.40084
N         26.49827       87.13568       54.59978
C         26.48897       88.41531       53.90053
C         26.03211       89.56492       54.79363
O         25.47226       89.34523       55.85880
C         25.69118       88.33456       52.57489
C         24.25636       87.89013       52.69597
O         23.70200       87.61609       53.89058
O         23.59198       87.74134       51.68294
H         25.90096       86.36665       54.26048
H         27.54195       88.63040       53.61081
H         26.20250       87.59550       51.92086
H         25.71865       89.31961       52.06027
N         26.33579       90.83977       54.42252
C         26.07203       92.02836       55.23612
C         24.62109       92.49644       55.18715
O         24.34295       93.54290       55.75770
C         27.08463       93.16544       54.90146
C         27.12035       93.67130       53.44139
C         28.28687       94.65618       53.20183
C         28.12680       96.04899       53.83570
N         27.05285       96.81355       53.19855
H         26.89232       90.93540       53.56510
H         26.29659       91.79179       56.30085
H         28.09533       92.76737       55.14262
H         26.89936       94.02157       55.58531
H         26.14638       94.10353       53.13547
H         27.32855       92.82068       52.76776
H         28.42270       94.79940       52.10817
H         29.22202       94.19009       53.58552
H         29.08144       96.60084       53.68161
H         27.95742       95.97950       54.93104
H         26.12524       96.36635       53.36913
H         27.03754       97.77968       53.59740
H         27.22877       96.88523       52.16909
N         23.63311       91.76797       54.58486
C         22.24154       92.20214       54.52693
C         21.30758       91.32124       55.41273
O         21.80671       90.11728       55.89930
C         21.76464       92.27678       53.04606
C         22.17284       91.16404       52.08071
O         22.82475       91.46685       51.09372
O         21.83884       89.86440       52.23542
H         23.85522       90.85737       54.16251
H         22.15410       93.22619       54.93373
H         22.20729       93.20820       52.62767
H         20.66297       92.40356       53.01313
N         20.23144       91.87480       56.26163
C         19.81064       93.25401       55.97387
C         20.57510       94.23290       56.82948
O         21.34899       93.81527       57.68119
H         19.40908       91.23820       56.15237
H         18.73659       93.37913       56.23447
H         19.90191       93.48969       54.89530
N         20.40150       95.57159       56.64774
C         21.05359       96.57675       57.48322
C         20.03765       97.53910       58.07360
O         18.87621       97.51551       57.68683
C         22.17560       97.29381       56.70043
C         21.74927       98.04474       55.46312
O         20.45852       98.11989       55.08651
O         22.59884       98.59851       54.78404
H         19.78573       95.88045       55.88086
H         21.54649       96.07757       58.34607
H         22.91440       96.52180       56.39204
H         22.69610       98.00572       57.37647
N         20.41272       98.40140       59.06114
C         19.50426       99.35063       59.68600
C         18.36326       98.72370       60.46989
O         17.56097       99.48674       60.99006
H         21.39417       98.40082       59.37755
H         19.08544      100.01476       58.90000
H         20.08043       99.98262       60.39688
N         18.21433       97.37285       60.61570
C         17.10995       96.76360       61.35181
C         16.27595       95.88108       60.44152
O         16.65838       95.64886       59.30160
C         17.65440       95.94279       62.55381
C         18.56353       94.77467       62.13383
O         18.37697       96.78124       63.41640
H         18.90156       96.73787       60.19248
H         16.43080       97.54920       61.74957
H         16.80011       95.49274       63.11020
H         17.71285       97.24719       63.98839
H         18.03519       94.08233       61.44729
H         19.48362       95.13448       61.63029
H         18.87291       94.19791       63.03044
N         15.11511       95.33782       60.90553
C         14.33704       94.35066       60.16540
C         12.98170       94.91586       59.76364
O         12.53128       94.62078       58.66590
C         14.15977       93.04354       61.00665
C         15.47244       92.64175       61.73211
C         13.67143       91.89785       60.09250
C         15.32269       91.44460       62.67266
H         14.79985       95.59581       61.85325
H         14.88099       94.06937       59.23566
H         13.40200       93.23779       61.79874
H         15.78702       93.47968       62.38500
H         16.28055       92.44298       60.99660
H         13.47679       90.97016       60.66516
H         12.72481       92.16312       59.58107
H         14.43987       91.67527       59.31839
H         14.51780       91.63725       63.41458
H         15.10168       90.51242       62.11741
H         16.27523       91.29235       63.22341
N         12.27144       95.72706       60.60487
C         10.92473       96.20878       60.30970
C          9.97024       95.76588       61.40384
O         10.41481       95.33008       62.45715
C         10.90107       97.74895       60.10640
C         11.44403       98.54321       61.30193
O         11.66250       98.08464       58.97531
H         12.68313       95.99997       61.50702
H         10.55672       95.74641       59.36849
H          9.84668       98.08287       59.95283
H         11.07777       97.95118       58.18347
H         11.36763       99.63231       61.09146
H         10.86510       98.32487       62.22282
H         12.51592       98.31266       61.47844
N          8.62470       95.81330       61.19103
C          7.64384       95.40214       62.18688
C          6.91305       94.14971       61.71779
O          6.98116       93.14478       62.41281
C          6.70544       96.59490       62.50940
C          5.69161       96.26192       63.60495
O          6.00990       97.02642       61.36692
H          8.28343       96.13651       60.27336
H          8.15211       95.13908       63.14206
H          7.33411       97.42835       62.90748
H          6.53758       97.76147       60.95786
H          5.08195       97.16271       63.83264
H          5.00901       95.44966       63.27713
H          6.21468       95.94867       64.53314
N          6.18354       94.13765       60.56630
C          5.40362       92.98835       60.10993
C          5.80335       92.59058       58.69984
O          5.96660       93.46399       57.85772
C          3.89550       93.30114       60.22286
C          3.39623       94.45570       59.33984
C          1.93178       94.78207       59.65414
C          1.42747       95.93340       58.77556
N          0.05930       96.30429       59.13390
H          6.14597       94.99737       60.00220
H          5.55700       92.11247       60.77912
H          3.69398       93.54957       61.28892
H          3.31338       92.38577       59.97343
H          3.49641       94.17583       58.26914
H          3.99351       95.36975       59.53363
H          1.85561       95.08197       60.72293
H          1.29558       93.88464       59.48965
H          1.46216       95.62492       57.70684
H          2.08744       96.81968       58.90755
H          0.02766       96.63267       60.12682
H         -0.25710       97.08327       58.51248
H         -0.58207       95.48755       59.01145
N          5.91621       91.27549       58.35095
C          6.24945       90.85785       56.99291
C          7.68474       91.23547       56.63732
O          7.84386       91.98851       55.68737
C          5.94352       89.35636       56.75962
C          6.18296       88.93993       55.29793
C          5.76138       87.51725       55.06627
O          6.57412       86.68665       54.69292
O          4.47701       87.15528       55.25114
H          5.69245       90.55589       59.05577
H          5.55750       91.39229       56.30056
H          4.86956       89.19425       57.00176
H          6.53710       88.69396       57.41785
H          7.26180       89.05300       55.05200
H          5.59609       89.59119       54.61501
N          8.79576       90.78316       57.29451
C          8.81840       89.92017       58.45867
H          7.82070       89.66547       58.84496
H          9.35385       88.98003       58.20855
H          9.36223       90.43208       59.27926
H          9.71767       91.08391       56.94144
Ca        21.08927       88.99760       54.13196
O         22.98563       87.32270       57.09638
H         23.20397       87.94507       56.36004
H         23.82576       87.25679       57.61537

Ca 1.0



