%chk=apoCaM-CA-Ng.loop2.water3.frame1384.chk
%nprocshared=20
%mem=10GB
%nosave
#b3lyp/svp scf=(tight,noincore,xqc) Test 
#IOP(5/87=12) Density=Current Pop=(MK,readradii) iop(6/33=2) iop(6/42=6)

apoCaM-CA-Ng.loop2.water3.frame1384 

   -2  1 
C          8.53462       56.92351       50.87641
C          9.54952       57.26696       51.93805
O         10.55845       56.57783       51.97652
H          7.65104       57.57770       50.82658
H          9.03184       56.98538       49.88434
H          8.18308       55.88227       51.02789
N          9.43885       58.30278       52.82332
C          8.32781       59.23936       52.95881
C          7.81627       59.31072       54.39887
O          7.00438       60.18459       54.67205
C          8.78730       60.62373       52.44522
C          9.93487       61.22026       53.21521
O         10.99721       61.44207       52.65707
O          9.78584       61.55071       54.51071
H         10.24481       58.46881       53.44365
H          7.46240       58.96500       52.33372
H          7.93672       61.33846       52.47371
H          9.08540       60.50628       51.37930
N          8.22251       58.43266       55.36925
C          7.84114       58.56236       56.77381
C          9.10205       58.56416       57.62763
O          9.23231       57.76463       58.54519
C          6.88357       57.42903       57.15764
H          8.83612       57.64260       55.12164
H          7.30766       59.52250       56.94702
H          6.56979       57.53353       58.21865
H          5.97471       57.47366       56.52055
H          7.37005       56.44018       57.01699
N         10.11241       59.41885       57.31531
C         11.42338       59.40493       57.95400
C         11.95120       60.81578       58.16447
O         11.26525       61.77632       57.84018
C         12.38166       58.49764       57.13719
C         12.26724       58.56309       55.62917
O         11.97197       57.53999       55.03171
O         12.48637       59.67843       54.90258
H          9.99677       60.01139       56.48133
H         11.36836       58.96322       58.97436
H         12.11853       57.45091       57.41219
H         13.43584       58.63488       57.44756
N         13.18949       61.00550       58.71155
C         13.79710       62.31135       58.91539
C         14.96618       62.50839       57.97631
O         15.24739       61.63629       57.16511
H         13.75726       60.18600       58.97143
H         14.12352       62.39996       59.97360
H         13.07332       63.12905       58.71075
N         15.67250       63.67303       58.00706
C         16.69485       64.01494       57.02252
C         18.05140       64.14303       57.68132
O         18.19889       64.95075       58.58872
C         16.33376       65.35441       56.34077
C         15.02514       65.34656       55.58494
N         14.60230       66.47370       54.96834
O         14.34219       64.33646       55.52246
H         15.44197       64.37128       58.73141
H         16.76071       63.23851       56.22849
H         17.13828       65.62013       55.62069
H         16.27936       66.15197       57.11437
H         15.16340       67.33704       55.01038
H         13.71086       66.48619       54.45125
N         19.10437       63.39381       57.23810
C         20.45554       63.51959       57.76456
C         20.95995       62.21583       58.34524
O         20.23133       61.23377       58.32234
H         18.95618       62.72469       56.46699
H         20.49658       64.29291       58.55858
H         21.12689       63.83078       56.93618
N         22.19292       62.10477       58.92415
C         23.16031       63.19443       59.05464
C         24.51637       62.85162       58.43268
O         25.40605       63.68597       58.51987
C         23.33423       63.54615       60.55408
C         22.01932       64.01520       61.18526
O         23.81029       62.43534       61.27153
H         22.44291       61.19421       59.34244
H         22.80612       64.11233       58.54354
H         24.04427       64.40251       60.65200
H         24.80084       62.49771       61.28340
H         21.63388       64.91125       60.65408
H         21.25088       63.21402       61.14761
H         22.18756       64.28661       62.24883
N         24.76164       61.65919       57.80774
C         26.06850       61.27048       57.27354
C         25.92338       60.99207       55.77502
O         25.08283       60.16944       55.43837
C         26.58010       60.00061       58.02458
C         26.63187       60.25981       59.55622
C         27.96740       59.58744       57.48987
C         27.04713       59.04082       60.38363
H         24.00565       60.96531       57.72377
H         26.82108       62.05677       57.46171
H         25.86758       59.16569       57.83868
H         25.61849       60.54462       59.90911
H         27.32501       61.10050       59.77815
H         28.31495       58.64351       57.95422
H         27.93133       59.40166       56.39827
H         28.71519       60.38480       57.68808
H         26.99843       59.29669       61.46340
H         26.35935       58.19053       60.19051
H         28.08902       58.73358       60.16378
N         26.69879       61.55731       54.79484
C         27.78926       62.50862       54.99490
C         28.72542       62.54179       53.77785
O         28.27074       62.76899       52.66543
C         27.25029       63.92040       55.34557
C         26.32496       64.52771       54.32294
O         25.05129       64.80798       54.65937
O         26.72544       64.81933       53.20851
H         26.52220       61.23734       53.83020
H         28.41054       62.16606       55.84937
H         28.10633       64.60885       55.51513
H         26.68873       63.86992       56.29393
N         30.06996       62.35419       53.94199
C         31.06178       62.46759       52.87134
C         31.95942       61.22894       52.84825
O         32.45180       60.87254       53.91271
C         31.95255       63.69387       53.15932
C         32.92393       63.92936       52.02760
C         34.28363       63.61114       52.17742
C         32.46949       64.44800       50.80198
C         35.17088       63.79515       51.11288
C         33.36287       64.64223       49.74424
C         34.71167       64.31156       49.89815
H         30.42667       62.19299       54.89698
H         30.56890       62.63888       51.89308
H         32.49692       63.51507       54.11335
H         31.34173       64.61219       53.30115
H         34.65182       63.19963       53.10873
H         31.42494       64.70105       50.66699
H         36.21431       63.53295       51.22864
H         33.00845       65.04359       48.80351
H         35.40065       64.45380       49.07579
N         32.30016       60.54859       51.70779
C         31.88383       60.87022       50.35080
C         30.41547       60.57141       50.15815
O         29.72301       61.39897       49.58270
C         32.83766       60.03719       49.48130
C         33.11343       58.81622       50.32475
C         33.21697       59.42038       51.72476
H         32.07588       61.92582       50.07332
H         32.50307       59.85467       48.43780
H         33.80665       60.58800       49.43464
H         32.22053       58.16434       50.26314
H         33.99071       58.20637       50.02091
H         32.94405       58.64734       52.47597
H         34.23783       59.81148       51.93173
N         29.84834       59.46399       50.70577
C         28.41893       59.20838       50.66308
C         28.03224       58.73651       49.26896
O         28.53636       57.70252       48.85319
C         28.03905       58.14731       51.72175
C         28.41055       58.61236       53.14579
C         28.03406       57.59515       54.17947
O         26.86751       57.26960       54.32871
O         28.98337       57.05553       54.96836
H         30.44065       58.82852       51.25440
H         27.88380       60.13748       50.95368
H         28.56130       57.18956       51.50362
H         26.94155       57.97277       51.67374
H         27.89400       59.56081       53.37223
H         29.50112       58.79905       53.23000
N         27.16190       59.40738       48.46152
C         26.50957       60.64748       48.82039
H         25.88209       60.50491       49.72432
H         27.26223       61.44072       49.00142
H         25.85679       60.98203       47.98607
H         26.95405       59.01368       47.53025
Ca        12.94535       61.79196       55.51741
O         15.33524       61.90117       53.41336
H         15.94219       61.15114       53.19140
H         15.69936       62.67269       52.91079
O         12.94674       63.90091       52.55408
H         13.62311       63.99330       51.83695
H         12.69460       64.83156       52.77802
O         10.94817       64.39154       55.21626
H         11.46128       65.20496       55.45145
H         10.41004       64.65628       54.42824

Ca 1.0



