%chk=apoCaM-CA-Ng.loop2.water3.frame605.chk
%nprocshared=20
%mem=10GB
%nosave
#b3lyp/svp scf=(tight,noincore,xqc) Test 
#IOP(5/87=12) Density=Current Pop=(MK,readradii) iop(6/33=2) iop(6/42=6)

apoCaM-CA-Ng.loop2.water3.frame605 

   -2  1 
C         62.17653       20.46398      -31.00172
C         60.90541       20.72719      -31.75329
O         60.88367       20.49105      -32.94972
H         62.99646       21.07866      -31.42780
H         62.07083       20.70467      -29.92353
H         62.44100       19.38938      -31.09741
N         59.81269       21.23782      -31.11572
C         58.51944       21.47702      -31.75478
C         57.83997       20.14416      -32.04961
O         56.98476       19.72127      -31.28198
C         57.65025       22.36084      -30.82510
C         56.32810       22.71764      -31.44938
O         56.29057       23.33807      -32.50025
O         55.17821       22.36523      -30.84324
H         59.91280       21.48047      -30.11760
H         58.65968       22.06175      -32.69151
H         58.19469       23.30689      -30.61303
H         57.47829       21.84134      -29.85645
N         58.18166       19.41427      -33.14801
C         57.62831       18.09232      -33.40924
C         58.08419       17.10591      -32.33694
O         59.10624       17.35383      -31.71117
C         58.11439       17.59441      -34.78017
H         58.84222       19.81433      -33.82684
H         56.52375       18.18763      -33.43041
H         59.22376       17.52511      -34.78944
H         57.71574       16.59551      -35.03620
H         57.79340       18.30063      -35.57370
N         57.43701       15.93120      -32.08533
C         56.16926       15.54841      -32.69994
C         55.02637       16.43548      -32.21380
O         55.18341       17.12452      -31.21375
C         55.85067       14.06262      -32.40426
C         55.65098       13.74923      -30.94348
O         55.27909       12.63426      -30.61418
O         55.79861       14.69822      -30.00035
H         57.87732       15.28510      -31.41082
H         56.25848       15.63719      -33.79607
H         56.66371       13.41736      -32.80068
H         54.91128       13.79489      -32.93470
N         53.82230       16.43044      -32.85485
C         52.65379       17.11079      -32.31702
C         52.80409       18.61323      -32.18319
O         53.75952       19.16325      -32.71304
H         53.70982       15.86760      -33.71154
H         52.47549       16.67323      -31.32995
H         51.76991       16.90534      -32.95668
N         51.89985       19.38168      -31.50057
C         50.74971       18.88513      -30.73770
C         50.80558       19.33742      -29.26672
O         49.85088       19.07845      -28.54628
C         49.44958       19.42308      -31.37731
C         49.28385       18.99368      -32.81451
N         49.18006       17.68453      -33.14312
O         49.22648       19.84224      -33.69178
H         52.04263       20.40461      -31.51289
H         50.69240       17.78064      -30.74523
H         49.45165       20.53459      -31.32186
H         48.56681       19.05372      -30.81005
H         49.21377       16.95198      -32.41970
H         49.06190       17.40093      -34.12723
N         51.85233       20.05936      -28.76147
C         51.83325       20.71806      -27.45961
C         51.82873       19.85351      -26.20778
O         51.76737       20.44982      -25.14232
H         52.66234       20.26957      -29.35982
H         50.94080       21.38049      -27.42753
H         52.73029       21.37142      -27.38662
N         51.89643       18.48980      -26.21515
C         51.85570       17.68834      -24.98140
C         53.13899       16.88315      -24.79234
O         54.03009       16.96114      -25.62579
C         50.60254       16.77505      -24.98396
C         49.30963       17.59374      -25.03925
O         50.65106       15.88746      -26.06937
H         51.96405       18.00006      -27.11558
H         51.77857       18.34333      -24.08652
H         50.57912       16.20076      -24.03079
H         50.10507       15.09522      -25.82410
H         48.43328       16.91297      -24.99493
H         49.25902       18.28505      -24.17079
H         49.25133       18.18417      -25.97655
N         53.28517       16.07143      -23.69821
C         54.46108       15.24565      -23.44452
C         54.10488       13.80102      -23.73208
O         53.22920       13.24463      -23.08491
C         54.96497       15.41121      -21.97432
C         56.09041       14.38609      -21.63906
C         55.44335       16.85445      -21.73839
C         56.52069       14.38249      -20.17202
H         52.50767       15.99235      -23.02808
H         55.28715       15.53890      -24.12522
H         54.10910       15.20230      -21.29410
H         56.97796       14.56025      -22.28076
H         55.72052       13.35753      -21.83283
H         56.31876       17.08236      -22.38443
H         54.63359       17.57813      -21.96496
H         55.73137       17.01228      -20.67955
H         56.99457       15.33998      -19.88113
H         55.64528       14.18266      -19.51738
H         57.26651       13.57367      -20.01373
N         54.79199       13.13252      -24.69699
C         54.59865       11.73804      -25.04836
C         55.86678       10.92577      -24.80735
O         55.86189        9.75548      -25.16491
C         54.13100       11.69003      -26.50983
C         52.79426       12.37799      -26.59753
O         51.81909       11.89512      -26.04472
O         52.68045       13.56946      -27.20156
H         55.49243       13.64081      -25.24762
H         53.80968       11.26329      -24.42399
H         54.02095       10.64927      -26.88154
H         54.88823       12.20010      -27.14381
N         56.93750       11.42228      -24.10365
C         58.02427       10.56545      -23.64095
C         59.40167       11.22870      -23.79273
O         60.05100       11.47898      -22.78559
C         57.71535       10.18094      -22.17299
C         58.58346        9.04513      -21.68645
C         59.47187        9.22045      -20.61320
C         58.49167        7.78259      -22.30237
C         60.26117        8.15182      -20.17306
C         59.27952        6.71938      -21.85876
C         60.16526        6.90345      -20.79560
H         56.89598       12.37369      -23.71590
H         58.03231        9.62113      -24.22073
H         56.66229        9.83102      -22.09509
H         57.80794       11.08404      -21.52854
H         59.55631       10.18078      -20.12028
H         57.80466        7.61709      -23.12312
H         60.94700        8.29015      -19.34789
H         59.19985        5.75259      -22.33932
H         60.77438        6.07718      -20.45344
N         59.95119       11.50563      -25.01450
C         61.30173       12.03209      -25.21520
C         61.56251       13.35683      -24.52239
O         62.63203       13.53587      -23.95800
C         61.39496       12.20523      -26.73460
C         60.51749       11.07474      -27.22356
C         59.32457       11.19138      -26.28121
H         62.03731       11.26483      -24.88152
H         60.89464       13.15090      -27.04508
H         62.43587       12.20802      -27.12505
H         60.26171       11.10488      -28.30287
H         61.04411       10.11587      -27.00507
H         58.66039       12.03773      -26.56734
H         58.76817       10.23234      -26.28781
N         60.60031       14.32089      -24.51844
C         60.74926       15.64207      -23.91358
C         61.23862       15.52005      -22.48484
O         62.28771       16.06634      -22.17225
C         59.44238       16.49696      -23.91838
C         58.76040       16.70032      -25.28893
C         57.83514       15.57812      -25.68390
O         57.26373       15.60570      -26.76000
O         57.56355       14.57917      -24.82816
H         59.72987       14.07021      -24.97696
H         61.51070       16.19778      -24.50614
H         59.75230       17.50357      -23.55974
H         58.68987       16.12566      -23.18925
H         59.53483       16.88446      -26.06317
H         58.10842       17.59896      -25.22995
N         60.53996       14.78514      -21.57466
C         60.97240       14.59318      -20.20540
H         61.91365       15.13681      -19.97694
H         60.18219       14.95321      -19.51512
H         61.14452       13.51105      -20.02596
H         59.67039       14.31509      -21.86840
Ca        54.41558       14.48524      -28.27549
O         52.16853       16.16488      -29.03711
H         52.09066       15.92388      -28.08513
H         52.04804       15.30699      -29.51677
O         54.61718       18.62392      -28.09734
H         54.67651       19.27540      -27.35399
H         54.85905       19.14486      -28.90373
O         57.28035       17.59621      -28.63343
H         58.08405       17.97250      -28.19535
H         57.44480       17.71202      -29.60026

Ca 1.0



