%chk=apoCaM-CA-Ng.loop1.water5.frame505.chk
%nprocshared=20
%mem=10GB
%nosave
#b3lyp/svp scf=(tight,noincore,xqc) Test 
#IOP(5/87=12) Density=Current Pop=(MK,readradii) iop(6/33=2) iop(6/42=6)

apoCaM-CA-Ng.loop1.water5.frame505 

   0  1 
C         55.66563       64.01853       17.03648
C         55.47026       65.36340       16.40083
O         55.65464       65.49203       15.19953
H         56.44964       64.09015       17.82032
H         54.71619       63.68369       17.50422
H         55.98297       63.26586       16.28403
N         55.10099       66.42322       17.17388
C         54.91324       67.79261       16.69939
C         53.71661       67.90968       15.75374
O         53.13762       66.90063       15.37546
C         56.24553       68.33950       16.12736
C         56.24129       69.82136       15.88487
O         56.44543       70.26295       14.76545
O         56.02530       70.67194       16.90747
H         54.96341       66.25640       18.18340
H         54.65602       68.39725       17.59873
H         56.50336       67.80964       15.18709
H         57.05149       68.14315       16.86732
N         53.23972       69.14479       15.41237
C         52.02653       69.43992       14.64786
C         50.74160       69.16996       15.42791
O         49.69990       69.63573       14.98627
C         52.00040       68.77431       13.25514
C         53.24949       69.10796       12.42855
C         53.16895       68.47909       11.03210
C         54.43671       68.77958       10.22200
N         54.35702       68.19086        8.88562
H         53.74512       69.97167       15.75334
H         52.02723       70.54335       14.49146
H         51.10101       69.13503       12.70779
H         51.91063       67.67225       13.35770
H         54.15002       68.71816       12.95101
H         53.34277       70.21153       12.32770
H         52.28318       68.88634       10.49618
H         53.05256       67.37704       11.12741
H         55.32109       68.36245       10.75368
H         54.56902       69.88055       10.12962
H         53.54933       68.59891        8.36106
H         55.23928       68.40240        8.36584
H         54.24555       67.15312        8.95437
N         50.72440       68.44724       16.58642
C         49.54404       68.24023       17.41122
C         49.96629       68.48716       18.86262
O         50.88908       67.80600       19.28687
C         49.04319       66.80253       17.18305
C         47.71902       66.51922       17.83095
O         46.74416       67.20167       17.55685
O         47.57370       65.44930       18.63320
H         51.57904       67.99286       16.91704
H         48.73673       68.90450       17.06008
H         49.80390       66.06038       17.50919
H         48.88791       66.66861       16.08934
N         49.44514       69.43695       19.69610
C         48.30682       70.29315       19.42711
C         47.29591       70.12985       20.52976
O         46.89408       71.12026       21.12383
H         49.88962       69.54916       20.62184
H         47.80369       70.05064       18.47951
H         48.63975       71.35278       19.37777
N         46.86424       68.88582       20.87836
C         45.85037       68.64382       21.89932
C         45.83367       67.17139       22.29020
O         45.79732       66.31628       21.42172
C         44.46977       69.15728       21.42234
C         44.01769       68.59183       20.09930
O         43.75886       67.27936       19.96126
O         43.84964       69.33596       19.14607
H         47.28888       68.07716       20.39842
H         46.11082       69.21272       22.81963
H         44.52806       70.26235       21.31920
H         43.70232       68.94527       22.19695
N         45.86276       66.80198       23.60279
C         45.87760       65.41068       24.03462
C         47.24883       64.75495       23.94601
O         47.35659       63.59659       24.32167
H         45.81875       67.53191       24.33038
H         45.10716       64.83344       23.48249
H         45.60138       65.37966       25.11132
N         48.35551       65.45063       23.55823
C         49.71970       64.93152       23.68624
C         50.06214       63.78432       22.73340
O         49.28591       63.45383       21.84892
C         50.74083       66.09519       23.48509
C         50.74893       66.63892       22.04978
O         50.44942       67.15114       24.36407
H         48.23691       66.43648       23.29154
H         49.83929       64.56535       24.73025
H         51.77758       65.74344       23.68458
H         50.75487       66.86847       25.26507
H         49.75841       67.04380       21.75671
H         51.49592       67.45594       21.96590
H         51.03274       65.84353       21.32825
N         51.29734       63.20539       22.83155
C         51.88269       62.30895       21.83114
C         51.26172       60.91728       21.75134
O         51.67863       60.16860       20.87786
C         53.43078       62.17603       22.03400
C         53.79311       61.46758       23.37066
C         54.11459       63.55344       21.89819
C         55.28573       61.16315       23.51181
H         51.89866       63.53250       23.59860
H         51.73528       62.78634       20.83613
H         53.81816       61.54815       21.20049
H         53.26572       60.49115       23.41940
H         53.47066       62.07237       24.24356
H         55.21812       63.45558       21.90580
H         53.83853       64.02132       20.92939
H         53.82474       64.24363       22.71671
H         55.46052       60.60908       24.45827
H         55.63026       60.53204       22.66515
H         55.88898       62.09205       23.55077
N         50.29087       60.48412       22.60340
C         49.72528       59.13359       22.53883
C         49.89788       58.41834       23.87374
O         50.44684       58.99801       24.80110
C         48.24635       59.19672       22.06502
C         47.33257       60.04045       22.96065
O         48.17767       59.65322       20.73600
H         49.93181       61.12448       23.32499
H         50.26145       58.50995       21.79018
H         47.83454       58.16681       22.05784
H         48.54012       60.57604       20.70600
H         47.33958       59.65391       24.00046
H         47.65213       61.10244       22.96245
H         46.29342       59.99523       22.57096
N         49.43939       57.14122       24.03565
C         49.54423       56.39871       25.28599
C         50.18419       55.03483       25.05634
O         51.19295       54.74685       25.68569
C         48.14035       56.28258       25.93877
C         48.18608       55.54198       27.28241
O         47.23647       55.64077       25.07679
H         48.95485       56.68548       23.25003
H         50.17350       56.95591       26.01668
H         47.79098       57.32575       26.12702
H         46.32483       55.93114       25.34207
H         48.51867       54.49106       27.14543
H         48.88033       56.05306       27.98251
H         47.17397       55.52839       27.73950
N         49.60648       54.12167       24.22213
C         50.02709       52.73089       24.12202
C         50.36131       52.36128       22.68924
O         49.53500       52.55544       21.80766
C         48.87823       51.86177       24.67163
C         49.18360       50.35645       24.65103
C         48.06589       49.57831       25.36317
C         48.23911       48.05189       25.29773
N         49.48477       47.59704       25.91760
H         48.76628       54.39071       23.69055
H         50.91231       52.53359       24.76622
H         47.94394       52.05107       24.09705
H         48.70484       52.17404       25.72578
H         50.14722       50.17645       25.17242
H         49.26977       50.01107       23.59768
H         47.09095       49.82454       24.88813
H         48.02170       49.89710       26.42820
H         48.20463       47.71377       24.23878
H         47.37983       47.58916       25.83292
H         49.55125       47.94573       26.90118
H         49.49410       46.55156       25.92766
H         50.30933       47.92112       25.36384
N         51.54294       51.74114       22.40518
C         51.88297       51.24710       21.07718
C         52.06678       52.39104       20.08097
O         51.33598       52.39834       19.10070
C         53.08182       50.27172       21.15456
C         53.41957       49.64038       19.79653
C         54.51077       48.61821       19.94404
O         55.72193       48.98160       20.40797
O         54.30560       47.45312       19.64251
H         52.19088       51.54131       23.18312
H         51.03465       50.61419       20.72605
H         52.79941       49.45368       21.85516
H         53.98062       50.75293       21.57601
H         53.75635       50.42313       19.08414
H         52.51076       49.15060       19.38187
N         52.97050       53.40704       20.21681
C         53.88462       53.57568       21.32536
H         54.46434       54.51325       21.18746
H         53.32803       53.65579       22.28077
H         54.62132       52.75499       21.36175
H         52.99462       54.13218       19.48242
Ca        45.47410       64.79772       19.15345
O         44.81600       65.21143       16.21296
H         43.90042       65.56285       16.34872
H         45.19280       65.77163       15.48895
O         46.16561       62.81819       21.35770
H         46.67526       63.66622       21.34454
H         46.60512       62.25895       20.66965
O         43.37992       64.56177       21.46245
H         42.92920       63.78032       21.86924
H         42.88169       65.34539       21.80580
O         42.50145       64.15025       18.44210
H         42.93740       63.39673       17.97052
H         42.03133       63.72665       19.20326
O         45.57438       62.18208       17.63718
H         46.51754       61.88146       17.64928
H         45.21711       61.91515       18.52136

Ca 1.0



