%chk=apoCaM-CA-Ng.loop2.water3.frame106.chk
%nprocshared=20
%mem=10GB
%nosave
#b3lyp/svp scf=(tight,noincore,xqc) Test 
#IOP(5/87=12) Density=Current Pop=(MK,readradii) iop(6/33=2) iop(6/42=6)

apoCaM-CA-Ng.loop2.water3.frame106 

   -2  1 
C         43.45707       27.70146       94.93679
C         44.23225       26.65046       94.19323
O         44.58645       26.86595       93.04356
H         42.46999       27.29801       95.24150
H         44.01609       28.00337       95.84786
H         43.29552       28.60148       94.30587
N         44.55333       25.48071       94.81166
C         45.33769       24.42584       94.17419
C         44.63271       23.83350       92.96156
O         45.26995       23.69827       91.93248
C         45.74958       23.32356       95.17310
C         44.61724       22.48164       95.69533
O         44.60715       21.27991       95.48110
O         43.62632       23.03234       96.42072
H         44.26053       25.36374       95.79305
H         46.30340       24.87284       93.84240
H         46.28121       23.79146       96.03025
H         46.47705       22.65803       94.65588
N         43.31056       23.49263       93.00183
C         42.53982       22.96019       91.87077
C         42.54212       23.91251       90.62673
O         42.89062       25.18405       91.08088
C         42.96039       21.51575       91.56525
H         42.79279       23.66383       93.87677
H         41.48089       22.91273       92.20753
H         44.01814       21.46934       91.22956
H         42.86208       20.89497       92.48059
H         42.30791       21.08154       90.77852
N         43.49222       23.49387       89.57795
C         43.68708       24.46324       88.47685
C         45.09105       24.27457       87.93780
O         45.28442       24.10334       86.74072
C         42.62537       24.31271       87.35449
C         41.23541       24.64237       87.80791
O         40.94222       25.88833       88.22115
O         40.35485       23.79870       87.76017
H         43.23075       22.56315       89.17892
H         43.66596       25.50618       88.86110
H         42.65771       23.27321       86.95817
H         42.86496       25.00565       86.51795
N         46.14268       24.30306       88.80269
C         47.52213       24.20985       88.37640
C         48.01483       25.50999       87.78707
O         49.15200       25.54083       87.33827
H         45.96368       24.40418       89.80678
H         47.63723       23.36392       87.66481
H         48.16478       24.00201       89.25947
N         47.24527       26.64091       87.78826
C         47.72276       27.91416       87.26400
C         48.91689       28.40617       88.06165
O         49.17405       27.89011       89.14213
C         46.58992       28.96349       87.31360
C         45.41580       28.53557       86.46377
N         44.20633       28.28529       87.01875
O         45.56403       28.40494       85.25840
H         46.29431       26.61094       88.18159
H         48.03838       27.75685       86.20976
H         46.94751       29.95046       86.95022
H         46.27050       29.08363       88.37220
H         44.05921       28.38003       88.03134
H         43.41258       27.98304       86.43461
N         49.70885       29.39906       87.56611
C         50.86161       29.91865       88.28601
C         50.69810       31.38714       88.55809
O         49.77859       32.00652       88.03835
H         49.49016       29.79793       86.64055
H         51.79407       29.74363       87.70948
H         50.97206       29.40975       89.26770
N         51.52822       32.00206       89.44765
C         51.34602       33.39791       89.84395
C         49.97522       33.63357       90.50430
O         49.63719       34.78316       90.74746
C         52.50472       33.87853       90.76715
C         52.49645       33.24108       92.16960
O         53.74840       33.68776       90.13282
H         52.28678       31.44419       89.86648
H         51.39468       34.00645       88.91356
H         52.39086       34.97237       90.92942
H         54.07254       32.76970       90.33106
H         51.57834       33.52974       92.70513
H         52.55386       32.13392       92.12217
H         53.35393       33.62092       92.76403
N         49.15515       32.59246       90.84575
C         47.83262       32.70773       91.45851
C         46.79273       31.92498       90.65943
O         47.14173       31.23872       89.70750
C         47.87772       32.15610       92.92401
C         48.54923       30.74982       92.98785
C         48.57019       33.17035       93.84215
C         48.53612       30.09798       94.36620
H         49.48633       31.63367       90.69137
H         47.49435       33.76731       91.47304
H         46.83889       32.07074       93.30735
H         49.61549       30.81320       92.68168
H         48.02130       30.06482       92.28911
H         49.62184       33.31077       93.55298
H         48.04997       34.15044       93.78127
H         48.52783       32.84692       94.90079
H         49.01246       29.09627       94.29312
H         49.12496       30.69158       95.09417
H         47.49483       29.97564       94.72644
N         45.48086       31.96323       91.03935
C         44.42928       31.12533       90.46710
C         43.31821       31.97371       89.84754
O         42.18783       31.52126       89.73145
C         43.88065       30.26902       91.62529
C         43.11857       29.08403       91.13091
O         43.70519       28.23738       90.47651
O         41.83114       28.87841       91.45628
H         45.21201       32.58560       91.81813
H         44.84795       30.45249       89.68927
H         43.27022       30.89656       92.31286
H         44.73097       29.85369       92.21083
N         43.58625       33.24258       89.44693
C         42.58379       34.20934       89.00134
C         41.59760       34.51126       90.12490
O         42.04568       34.63882       91.24981
C         43.29411       35.51414       88.51815
C         44.40324       36.00341       89.44400
C         44.14869       36.54547       90.71752
C         45.74243       35.85969       89.02848
C         45.20753       36.88896       91.56629
C         46.79334       36.21047       89.87502
C         46.52853       36.71359       91.14859
H         44.56732       33.53939       89.48915
H         42.03544       33.79803       88.12816
H         42.56414       36.32258       88.29739
H         43.76320       35.24300       87.54692
H         43.14077       36.69960       91.06799
H         45.97837       35.44554       88.05597
H         45.00383       37.28493       92.55277
H         47.81254       36.07671       89.54251
H         47.34691       36.96908       91.80926
N         40.25589       34.71344       89.91367
C         39.35622       35.24471       90.93506
C         39.18472       34.44338       92.21644
O         38.66646       35.01045       93.16877
C         38.01434       35.37241       90.20813
C         38.46409       35.71019       88.80344
C         39.62232       34.73488       88.60895
H         39.76007       36.24851       91.19997
H         37.52603       34.37102       90.15666
H         37.30545       36.09343       90.66839
H         37.67701       35.65393       88.02194
H         38.87405       36.74683       88.82370
H         39.25409       33.71147       88.37681
H         40.26842       35.12264       87.79317
N         39.53620       33.12951       92.32343
C         39.36634       32.38355       93.57505
C         40.39297       32.78121       94.63274
O         40.26895       32.32020       95.75945
C         39.42400       30.86370       93.31133
C         38.16281       30.40107       92.55987
C         38.22704       28.94880       92.19749
O         39.06155       28.55606       91.40108
O         37.34173       28.07728       92.71706
H         39.88586       32.63935       91.48612
H         38.35965       32.60626       93.99724
H         39.45246       30.30376       94.27306
H         40.35216       30.62860       92.74763
H         38.01580       30.98475       91.62746
H         37.28382       30.57042       93.22156
N         41.42806       33.62345       94.36186
C         42.39001       34.02784       95.36185
H         43.15131       34.69457       94.90109
H         41.87704       34.58580       96.17314
H         42.90458       33.13810       95.78085
H         41.55538       33.99435       93.41942
Ca        41.30426       26.77243       90.90661
O         38.45403       25.70582       90.12760
H         37.95053       25.58824       90.97191
H         38.31609       24.85824       89.63494
O         40.25385       26.23928       93.54557
H         40.00314       27.17198       93.76320
H         40.67383       25.89403       94.37211
O         40.66114       28.98621       88.46746
H         41.54391       29.30362       88.15124
H         40.13868       28.84149       87.63906

Ca 1.0



