%chk=apoCaM-CA-Ng.loop3.water4.frame224.chk
%nprocshared=20
%mem=10GB
%nosave
#b3lyp/svp scf=(tight,noincore,xqc) Test 
#IOP(5/87=12) Density=Current Pop=(MK,readradii) iop(6/33=2) iop(6/42=6)

apoCaM-CA-Ng.loop3.water4.frame224 

   0  1 
C         45.90327       55.02777       93.55583
C         46.76931       56.04349       94.23895
O         46.54939       57.22956       94.04906
H         45.12836       55.52518       92.93255
H         46.53075       54.39176       92.89649
H         45.40009       54.39026       94.31161
N         47.78848       55.63879       95.05354
C         48.71598       56.54548       95.73229
C         49.62859       57.28440       94.75238
O         50.30720       58.21383       95.16671
C         47.97649       57.51051       96.69471
C         47.17892       56.80690       97.76553
O         46.55071       57.53880       98.70344
O         47.10883       55.58842       97.81415
H         47.92060       54.62659       95.20173
H         49.40027       55.94326       96.37030
H         47.30660       58.19383       96.13766
H         48.73093       58.13827       97.21522
N         49.76393       56.86827       93.45891
C         50.64614       57.49259       92.47687
C         49.83850       57.98532       91.27401
O         50.42605       58.28937       90.24507
C         51.72236       56.46811       92.04776
C         52.61118       56.03602       93.23091
C         53.72021       55.07546       92.77077
C         54.67601       54.65442       93.90321
N         54.01021       53.85843       94.93638
H         49.23990       56.04196       93.13555
H         51.18406       58.37180       92.89483
H         52.37671       56.93707       91.27998
H         51.23741       55.57375       91.59796
H         51.97896       55.54330       93.99774
H         53.08383       56.93747       93.68026
H         54.32861       55.59150       91.99587
H         53.27135       54.16786       92.31211
H         55.14396       55.55373       94.36193
H         55.48920       54.04075       93.45519
H         53.29195       54.42494       95.43969
H         53.56680       53.01298       94.50918
H         54.72372       53.54507       95.63386
N         48.48314       58.13513       91.35541
C         47.61981       58.56947       90.26075
C         48.06577       59.92333       89.73013
O         48.27657       60.83240       90.51924
C         46.15527       58.61087       90.75981
C         45.15562       58.75912       89.64558
O         44.26071       57.77882       89.42146
O         45.13271       59.75779       88.94902
H         48.02862       57.93940       92.25377
H         47.67098       57.80464       89.45422
H         46.02287       59.41811       91.51357
H         45.93139       57.64185       91.25865
N         48.24926       60.11274       88.39151
C         48.78223       61.33145       87.79640
C         47.97730       62.60892       88.00328
O         48.46615       63.64312       87.57020
H         48.06004       59.32617       87.75617
H         48.89780       61.17480       86.70174
H         49.79695       61.49657       88.22014
N         46.78992       62.65562       88.67638
C         46.18591       63.91876       89.09568
C         45.44959       63.75011       90.41381
O         44.30525       64.16930       90.53536
C         45.29557       64.56991       88.01487
C         44.16288       63.63782       87.55960
N         42.94320       64.38310       87.27486
O         44.60018       63.03232       86.38764
H         46.40201       61.79048       89.06309
H         47.00246       64.63417       89.33999
H         45.89559       64.89021       87.13368
H         44.87585       65.50262       88.45135
H         42.59417       64.79508       88.17059
H         42.22002       63.69455       86.96789
N         46.08497       63.18494       91.47905
C         45.50933       63.16642       92.81076
C         44.17073       62.46888       92.92659
O         43.52828       62.67095       93.94609
H         47.04434       62.82997       91.36254
H         45.35615       64.22759       93.10275
H         46.22163       62.71786       93.53657
N         43.67627       61.63977       91.95935
C         42.32904       61.07688       92.02770
C         41.54307       61.40586       90.77367
O         42.12095       61.76193       89.75707
C         42.36116       59.54016       92.20895
C         42.68753       59.12745       93.62635
C         41.70418       58.46647       94.38624
C         43.93615       59.39337       94.21425
C         41.95350       58.09812       95.70736
C         44.18139       59.02725       95.54306
C         43.18668       58.38251       96.29389
O         43.39829       58.03550       97.57808
H         44.26069       61.40317       91.14398
H         41.75802       61.51876       92.87300
H         43.05201       59.06656       91.48223
H         41.34678       59.14687       91.97802
H         40.73306       58.24319       93.96172
H         44.71853       59.88636       93.65543
H         41.18091       57.59895       96.27862
H         45.14141       59.24922       95.98919
H         44.22420       58.23895       98.03504
N         40.18724       61.23495       90.78445
C         39.36676       61.32647       89.58352
C         39.42810       62.72801       89.00538
O         39.96543       62.88689       87.92137
C         37.89475       60.85649       89.82691
C         37.78937       59.48736       90.56214
C         37.12652       60.78706       88.49148
C         38.57567       58.34440       89.91453
H         39.75153       60.97024       91.67648
H         39.79745       60.61596       88.85211
H         37.37412       61.59516       90.47495
H         36.71859       59.19872       90.63560
H         38.14467       59.58228       91.60755
H         36.07028       60.49315       88.67055
H         37.11883       61.76576       87.97959
H         37.58920       60.05710       87.79660
H         38.23554       58.15342       88.87791
H         39.66207       58.56945       89.91354
H         38.42838       57.41821       90.50780
N         38.91654       63.79599       89.67866
C         38.99518       65.16407       89.17155
C         38.25013       65.35210       87.85707
O         38.67736       66.17973       87.06501
C         38.45940       66.16515       90.21045
O         39.11810       66.01921       91.44161
H         38.48542       63.63136       90.60126
H         40.06882       65.40691       89.00235
H         37.37527       65.98352       90.37352
H         38.57576       67.21143       89.84815
H         40.08682       66.15646       91.27411
N         37.13430       64.61985       87.55692
C         36.36165       64.75046       86.31941
C         37.15039       64.40811       85.05445
O         36.59486       64.58133       83.97559
C         35.73605       66.15172       86.22845
H         36.78987       63.94408       88.25137
H         35.50791       64.03776       86.36305
H         36.50191       66.94748       86.13939
H         35.06593       66.21611       85.34355
H         35.11850       66.34442       87.13178
N         38.41643       63.89387       85.08732
C         39.20058       63.59980       83.89404
C         39.51309       62.11970       83.77339
O         39.24138       61.35684       84.69056
C         40.50783       64.39825       83.94790
H         38.85714       63.69367       85.98950
H         38.63779       63.89590       82.98214
H         41.09791       64.09994       84.84159
H         41.12716       64.21830       83.04465
H         40.29056       65.48475       84.01740
N         40.05111       61.64759       82.61201
C         40.44319       60.26721       82.33224
C         39.32913       59.22649       82.46910
O         39.62875       58.05621       82.26988
C         41.69593       59.83832       83.13548
C         42.90232       60.76524       82.89566
C         44.18533       60.03235       83.20094
O         44.94696       59.75777       82.28772
O         44.50311       59.63866       84.44667
H         40.20126       62.32391       81.84663
H         40.76056       60.22685       81.26544
H         41.97269       58.83344       82.74280
H         41.49867       59.72296       84.21853
H         42.80424       61.71255       83.47169
H         42.93375       61.02631       81.81558
N         38.03733       59.54380       82.77591
C         36.99808       58.54641       82.94780
H         36.18947       58.72266       82.20947
H         37.37235       57.50875       82.81735
H         36.57840       58.63067       83.97232
H         37.74898       60.52259       82.89114
Ca        43.93317       60.89887       86.18644
O         46.42472       58.32429       86.06998
H         47.04387       57.60495       86.35017
H         46.84812       58.71548       85.26486
O         43.39212       57.28956       85.75259
H         44.15942       56.67891       85.88736
H         43.25587       57.30558       84.77204
O         41.57199       57.93705       88.03642
H         41.68960       57.09613       88.54479
H         40.96617       57.69487       87.29160
O         41.03819       60.48967       86.61663
H         41.57138       60.63693       87.43497
H         41.31539       61.22869       86.02053

Ca 1.0



