%chk=apoCaM-CA-Ng.loop2.water3.frame674.chk
%nprocshared=20
%mem=10GB
%nosave
#b3lyp/svp scf=(tight,noincore,xqc) Test 
#IOP(5/87=12) Density=Current Pop=(MK,readradii) iop(6/33=2) iop(6/42=6)

apoCaM-CA-Ng.loop2.water3.frame674 

   -2  1 
C        -21.95362       48.31430       71.30035
C        -23.33525       47.77185       71.39376
O        -24.05077       47.80737       70.40227
H        -21.28406       47.60333       70.77449
H        -21.99989       49.27790       70.75296
H        -21.56901       48.51485       72.32080
N        -23.78248       47.25507       72.57117
C        -25.14547       46.80958       72.76634
C        -25.21946       45.33522       72.50663
O        -25.46334       44.53890       73.40463
C        -25.64881       47.23397       74.15212
C        -27.14492       47.11396       74.25017
O        -27.85481       48.02741       73.85797
O        -27.71059       46.00068       74.75159
H        -23.12465       47.16423       73.36103
H        -25.80899       47.30777       72.02465
H        -25.38740       48.30282       74.30247
H        -25.15310       46.64098       74.95066
N        -25.08774       44.92300       71.22412
C        -25.31603       43.56923       70.81062
C        -24.23036       43.12779       69.85230
O        -23.66896       43.95948       69.14987
C        -26.69827       43.54100       70.14920
H        -24.95492       45.62179       70.48148
H        -25.35835       42.90033       71.68632
H        -26.73993       44.24408       69.28984
H        -26.97190       42.52640       69.80208
H        -27.45814       43.87365       70.89505
N        -23.90043       41.82085       69.70455
C        -24.40048       40.75309       70.56814
C        -23.88591       40.85136       72.00805
O        -22.83120       41.40110       72.24501
C        -23.97422       39.38992       70.01181
C        -22.47048       39.22958       69.92767
O        -21.86783       39.54992       68.91488
O        -21.79786       38.64647       70.93506
H        -23.26891       41.59087       68.92145
H        -25.51223       40.79621       70.57982
H        -24.41488       39.24745       69.00251
H        -24.39315       38.61678       70.68737
N        -24.56946       40.29396       73.03681
C        -24.02331       40.28146       74.38662
C        -25.09391       39.88217       75.37094
O        -26.11890       40.54655       75.35361
H        -25.49509       39.88232       72.85383
H        -23.70101       41.31136       74.67129
H        -23.12843       39.62745       74.40152
N        -24.99317       38.87645       76.29223
C        -23.84525       38.00374       76.52511
C        -22.56373       38.81013       76.75902
O        -22.63741       39.96830       77.14719
C        -24.13301       37.05418       77.72136
C        -24.08917       37.79470       79.03745
N        -23.07049       37.55721       79.89310
O        -24.93448       38.63471       79.31274
H        -25.82223       38.73223       76.88536
H        -23.70729       37.37364       75.61720
H        -23.35363       36.26686       77.73487
H        -25.11004       36.52470       77.61625
H        -22.34565       36.86456       79.65421
H        -22.97974       38.08816       80.76983
N        -21.36061       38.29043       76.40128
C        -20.13829       39.08958       76.38612
C        -19.01326       38.39199       75.65045
O        -17.85874       38.59445       76.00226
H        -21.35158       37.31950       76.06167
H        -19.82438       39.32662       77.42589
H        -20.32891       40.05075       75.85598
N        -19.28115       37.54621       74.61227
C        -18.25706       36.81850       73.88738
C        -17.58462       37.75184       72.90704
O        -18.24880       38.34578       72.07725
C        -18.85267       35.55824       73.20265
C        -17.86507       34.91176       72.22036
O        -19.17137       34.60438       74.18942
H        -20.25381       37.40819       74.30850
H        -17.50977       36.42799       74.61534
H        -19.75771       35.81956       72.60642
H        -20.12367       34.72172       74.43890
H        -18.30332       33.98591       71.79616
H        -17.65354       35.59851       71.37092
H        -16.91077       34.64929       72.72317
N        -16.23987       37.90899       72.97273
C        -15.43725       38.80304       72.14354
C        -15.13956       38.16756       70.78505
O        -14.75163       37.00954       70.72319
C        -14.14728       39.16786       72.92905
C        -13.18251       40.10059       72.14440
C        -14.55404       39.77493       74.29771
C        -11.88683       40.35987       72.93230
H        -15.75348       37.37917       73.70907
H        -15.97134       39.76754       72.00587
H        -13.58534       38.22801       73.11170
H        -13.64615       41.07410       71.87861
H        -12.89939       39.58641       71.20042
H        -15.26117       40.62576       74.18105
H        -15.04403       39.01399       74.93810
H        -13.68086       40.10502       74.88057
H        -11.48387       39.40525       73.33358
H        -11.10576       40.82100       72.29418
H        -12.06932       41.05509       73.77755
N        -15.32753       38.90205       69.65251
C        -15.18117       38.44513       68.27987
C        -14.30925       39.36280       67.39266
O        -14.04414       38.98699       66.25844
C        -16.60336       38.43724       67.67127
C        -17.57038       37.55283       68.44263
O        -18.67948       38.00196       69.08851
O        -17.35999       36.35450       68.45276
H        -15.68561       39.83268       69.77157
H        -14.74101       37.42694       68.27057
H        -16.53138       38.04651       66.63333
H        -16.99532       39.47944       67.61221
N        -13.88190       40.59065       67.80577
C        -13.24131       41.58104       66.95334
C        -13.80978       42.98736       67.22924
O        -13.03313       43.85265       67.60946
C        -11.69184       41.45209       67.10985
C        -10.85118       42.49089       66.37915
C         -9.64764       42.94114       66.96031
C        -11.25859       43.05277       65.15503
C         -8.89502       43.95185       66.35057
C        -10.50544       44.06464       64.55226
C         -9.33016       44.52069       65.15234
H        -14.04618       40.87092       68.76165
H        -13.47331       41.37822       65.88768
H        -11.39496       40.44636       66.74326
H        -11.42437       41.49154       68.18937
H         -9.29516       42.51863       67.89331
H        -12.17105       42.73612       64.67447
H         -7.98233       44.30593       66.81451
H        -10.84514       44.50663       63.62547
H         -8.76027       45.31739       64.69028
N        -15.12533       43.34059       66.98780
C        -15.53835       44.74867       66.90744
C        -15.56663       45.51828       68.24653
O        -15.74459       46.72663       68.25579
C        -16.91839       44.71434       66.22119
C        -17.02717       43.31109       65.62342
C        -16.17831       42.44810       66.53701
H        -14.80899       45.23406       66.22782
H        -17.72526       44.82414       66.97509
H        -17.02814       45.48924       65.42937
H        -18.07720       42.94991       65.51145
H        -16.53651       43.30811       64.62959
H        -16.79691       42.17212       67.41884
H        -15.84233       41.53232       66.00482
N        -15.40897       44.83999       69.40893
C        -15.32375       45.35581       70.77162
C        -14.03396       46.15047       70.87261
O        -14.03643       47.28494       71.33026
C        -15.32156       44.19086       71.83663
C        -16.49949       43.17121       71.76277
C        -16.38584       42.16529       70.68379
O        -17.38733       41.31220       70.45259
O        -15.30880       41.96339       70.17408
H        -15.30007       43.86435       69.27572
H        -16.20463       45.99687       70.99761
H        -15.39378       44.65890       72.84197
H        -14.36136       43.62964       71.82007
H        -17.47544       43.68166       71.67625
H        -16.49795       42.53782       72.67791
N        -12.88812       45.59872       70.38044
C        -11.62488       46.29512       70.29833
H        -10.86240       45.61467       69.85737
H        -11.71953       47.17958       69.63140
H        -11.28697       46.61017       71.30482
H        -12.92493       44.64465       69.99610
Ca       -19.08242       39.95182       70.11873
O        -20.36987       40.14237       73.01332
H        -20.64873       40.98464       73.45049
H        -21.13171       39.52739       73.15549
O        -20.64347       42.28033       70.35788
H        -21.47197       42.35674       70.86337
H        -20.83168       42.89909       69.61720
O        -19.48315       41.30435       67.86209
H        -19.48626       40.65216       67.12016
H        -20.30009       41.84229       67.72534

Ca 1.0



