%chk=apoCaM-CA-Ng.loop4.water5.frame752.chk
%nprocshared=20
%mem=10GB
%nosave
#b3lyp/svp scf=(tight,noincore,xqc) Test 
#IOP(5/87=12) Density=Current Pop=(MK,readradii) iop(6/33=2) iop(6/42=6)

apoCaM-CA-Ng.loop4.water5.frame752 

   -3  1 
C         12.21024       37.76995       -5.05817
C         12.68837       37.72156       -6.47886
O         12.12061       36.98253       -7.26946
H         11.36917       37.05978       -4.90225
H         13.03220       37.50945       -4.36486
H         11.85954       38.79521       -4.82134
N         13.71913       38.52124       -6.88544
C         14.21905       38.57816       -8.25944
C         13.16153       39.07354       -9.24674
O         13.42242       39.02066      -10.43843
C         14.79972       37.21133       -8.70372
C         15.92588       36.76437       -7.81351
O         17.01886       37.53746       -7.66436
O         15.86777       35.68762       -7.24301
H         14.16919       39.13321       -6.18792
H         15.05796       39.30760       -8.30768
H         15.21283       37.30682       -9.73122
H         14.01014       36.43142       -8.73586
N         11.96487       39.59381       -8.83487
C         10.88385       39.97428       -9.74794
C         11.32805       41.00707      -10.79462
O         12.22552       41.78286      -10.49746
C          9.62365       40.48399       -8.97121
C          9.93576       41.75151       -8.12632
C          9.01934       39.34600       -8.12331
C          8.70263       42.37147       -7.46984
H         11.80070       39.69706       -7.82825
H         10.59684       39.04611      -10.26739
H          8.84926       40.76398       -9.71235
H         10.36787       42.53060       -8.78843
H         10.67654       41.52905       -7.33086
H          9.70689       39.01782       -7.31749
H          8.06122       39.65727       -7.66165
H          8.79134       38.47259       -8.77136
H          8.24811       41.68358       -6.72927
H          9.00230       43.29478       -6.93021
H          7.95076       42.64003       -8.24152
N         10.75064       41.11693      -12.03893
C          9.70243       40.23016      -12.55340
C         10.17596       38.78931      -12.68532
O          9.33631       37.89958      -12.69514
C          9.07496       40.75424      -13.86341
C         10.00880       40.85069      -15.04283
O          9.58108       41.26805      -16.10697
O         11.30374       40.49267      -14.95001
H         11.07987       41.88260      -12.64749
H          8.87795       40.23749      -11.81474
H          8.66188       41.76786      -13.66603
H          8.22676       40.09131      -14.14265
N         11.50560       38.48172      -12.66786
C         12.00338       37.14243      -12.42901
C         11.63189       36.10995      -13.45218
O         11.03231       36.40539      -14.47665
H         12.20614       39.23563      -12.69960
H         11.60373       36.80859      -11.44657
H         13.11248       37.16444      -12.35480
N         11.97202       34.82281      -13.17717
C         11.68116       33.68884      -14.03952
C         10.20124       33.47446      -14.31387
O          9.90768       32.70302      -15.21623
C         12.27338       32.38830      -13.42345
C         11.80550       32.06703      -12.01261
O         12.24968       30.94890      -11.40933
O         11.04670       32.80591      -11.40191
H         12.48879       34.65268      -12.30008
H         12.17164       33.87894      -15.01965
H         13.37832       32.48300      -13.38382
H         12.02770       31.52650      -14.08180
N          9.20939       34.04411      -13.56650
C          7.80610       33.72206      -13.78638
C          7.47380       32.26085      -13.49667
O          6.33637       31.87698      -13.72466
H          9.43933       34.69790      -12.80464
H          7.54465       33.96549      -14.83915
H          7.17168       34.35024      -13.12309
N          8.39693       31.39668      -12.96744
C          8.16460       29.99135      -12.65305
C          7.14367       29.80326      -11.54436
O          6.76310       28.67247      -11.27489
C          7.88378       29.16943      -13.92726
C          9.07224       29.30338      -14.90099
C          8.99516       28.41562      -16.11249
N          9.99798       28.44865      -17.02083
O          8.04864       27.66077      -16.27969
H          9.33257       31.73376      -12.74748
H          9.10571       29.56795      -12.23256
H          6.93999       29.48541      -14.41957
H          7.78811       28.10065      -13.63521
H         10.01238       29.04707      -14.36464
H          9.13909       30.35157      -15.25003
H         10.80382       29.07899      -16.88873
H          9.97482       27.84311      -17.85390
N          6.75646       30.85964      -10.77543
C          5.88719       30.75930       -9.61611
C          6.72732       31.04199       -8.37477
O          6.74829       30.20386       -7.48354
C          4.61688       31.64432       -9.79967
C          4.89317       33.14750       -9.97415
C          3.80774       31.13775      -11.00881
H          7.14664       31.78839      -10.97149
H          5.50574       29.71899       -9.49841
H          3.97914       31.52128       -8.89678
H          3.93373       33.69417      -10.09731
H          5.38762       33.56711       -9.07729
H          5.51100       33.34857      -10.87453
H          3.54033       30.06755      -10.87626
H          2.86506       31.71424      -11.11990
H          4.38997       31.23901      -11.94932
N          7.52635       32.14866       -8.28604
C          8.45673       32.37552       -7.17948
C          9.53533       31.29374       -7.14241
O          9.69760       30.56764       -8.11649
C          9.14745       33.75013       -7.37957
C         10.11547       34.11642       -6.28239
N         11.43884       34.23906       -6.54367
O          9.70300       34.29407       -5.14614
H          7.50468       32.83910       -9.04925
H          7.87448       32.37018       -6.23105
H          8.38125       34.55141       -7.44863
H          9.68916       33.71819       -8.35214
H         11.81042       34.08298       -7.49264
H         12.10052       34.47997       -5.79186
N         10.33164       31.14857       -6.04319
C         11.47605       30.23623       -6.01197
C         11.96139       30.00417       -4.58065
O         11.47791       30.66993       -3.67284
C         12.60751       30.88309       -6.85203
C         13.72017       29.96083       -7.26953
C         15.01969       30.11314       -6.75873
C         13.47159       28.97367       -8.23607
C         16.05487       29.28797       -7.21156
C         14.50891       28.15924       -8.69656
C         15.80312       28.31293       -8.18925
O         16.79440       27.52587       -8.65396
H         10.10453       31.71704       -5.21505
H         11.13944       29.25791       -6.42158
H         13.00249       31.74967       -6.27465
H         12.20217       31.30363       -7.79716
H         15.23198       30.86998       -6.01472
H         12.47934       28.85632       -8.65442
H         17.05316       29.41492       -6.81177
H         14.30789       27.41639       -9.45827
H         17.70688       27.60771       -8.34231
N         12.89444       29.05058       -4.28978
C         13.37518       28.82484       -2.93031
C         14.89354       28.88439       -2.89332
O         15.50474       27.91095       -3.31513
C         12.90024       27.44986       -2.40432
C         11.37072       27.33318       -2.35199
C         10.95387       25.99161       -1.81839
O         10.22212       25.91120       -0.69075
O         11.26734       24.96897       -2.40760
H         13.25255       28.44565       -5.04473
H         12.95570       29.57488       -2.24419
H         13.30103       27.30020       -1.37616
H         13.29985       26.64206       -3.05791
H         10.94140       27.45741       -3.36901
H         10.96483       28.13178       -1.69399
N         15.62554       29.94339       -2.43198
C         15.13771       31.27666       -2.07054
C         14.19526       31.26099       -0.87996
O         14.56425       30.75159        0.16925
C         16.35774       32.17758       -1.75020
C         16.02079       33.67165       -1.66473
C         17.24466       34.45599       -1.27186
O         17.83809       35.31884       -2.12279
O         17.72384       34.30139       -0.15999
H         16.64963       29.80640       -2.43059
H         14.62959       31.70311       -2.96424
H         17.10646       32.07655       -2.56779
H         16.82984       31.82510       -0.80594
H         15.22151       33.86742       -0.91807
H         15.66026       33.99960       -2.65921
N         12.96060       31.83385       -0.97814
C         11.99964       31.86893        0.10624
H         11.06064       31.37420       -0.22005
H         12.36818       31.35459        1.01814
H         11.77446       32.92527        0.36478
H         12.68308       32.28189       -1.86413
Ca        17.31138       35.58812       -4.30474
O         20.16436       37.17559       -4.07311
H         20.98267       37.70231       -3.89095
H         19.62758       37.25822       -3.24527
O         20.10918       33.79477       -4.47747
H         20.31112       33.03763       -5.08294
H         20.99626       34.16207       -4.23592
O         17.07933       32.85792       -5.61413
H         17.05568       32.78847       -6.60150
H         17.82205       32.26338       -5.34071
O         14.47158       35.48517       -4.77486
H         14.58330       34.50225       -4.78629
H         14.59791       35.74679       -3.82813
O         19.81675       35.86050       -7.16186
H         20.15578       34.93542       -7.06502
H         20.40123       36.26695       -7.85010

Ca 1.0



