%chk=apoCaM-CA-Ng.loop3.water4.frame180.chk
%nprocshared=20
%mem=10GB
%nosave
#b3lyp/svp scf=(tight,noincore,xqc) Test 
#IOP(5/87=12) Density=Current Pop=(MK,readradii) iop(6/33=2) iop(6/42=6)

apoCaM-CA-Ng.loop3.water4.frame180 

   0  1 
C        -23.57372       34.02946       32.14296
C        -24.89827       33.50538       32.61276
O        -25.11806       33.47243       33.81288
H        -22.75559       33.40519       32.55894
H        -23.50282       34.02127       31.03534
H        -23.44659       35.07496       32.49651
N        -25.83910       33.07822       31.71982
C        -27.17169       32.60822       32.09630
C        -27.14514       31.33015       32.93145
O        -28.19956       30.94695       33.42046
C        -27.97460       33.72673       32.81264
C        -28.12960       34.98756       31.99746
O        -28.85534       36.00538       32.49388
O        -27.62665       35.09944       30.89027
H        -25.61787       33.11446       30.71325
H        -27.74026       32.36399       31.17133
H        -27.51056       33.98264       33.78517
H        -28.99864       33.35129       33.02534
N        -26.01068       30.58261       33.09628
C        -25.96808       29.37428       33.91623
C        -24.87295       29.53158       34.95745
O        -23.99370       28.68812       35.07549
C        -25.74784       28.14139       33.01819
C        -26.88438       27.97072       31.99806
C        -26.63200       26.75821       31.09787
C        -27.76187       26.58454       30.07512
N        -27.50993       25.42961       29.21443
H        -25.14123       30.85520       32.61595
H        -26.92625       29.23422       34.46373
H        -25.69953       27.22922       33.65342
H        -24.78178       28.25215       32.47756
H        -26.95519       28.87739       31.35842
H        -27.84767       27.84031       32.53934
H        -26.55948       25.84238       31.72403
H        -25.67060       26.90040       30.55673
H        -27.84024       27.49969       29.44625
H        -28.72809       26.44150       30.60845
H        -26.61530       25.56204       28.68874
H        -27.45479       24.55816       29.79024
H        -28.29411       25.33448       28.52962
N        -24.85205       30.65449       35.72107
C        -23.80314       30.96163       36.68349
C        -24.07874       30.20848       37.97286
O        -25.20721       30.24140       38.44443
C        -23.76949       32.49370       36.87659
C        -22.53925       33.07424       37.57660
O        -22.40823       32.63786       38.89016
O        -21.35476       32.75745       36.90257
H        -25.57783       31.36709       35.54408
H        -22.81327       30.69546       36.24901
H        -24.69718       32.84457       37.37292
H        -23.73789       32.94598       35.86560
N        -23.09264       29.51696       38.60697
C        -23.29665       28.75523       39.83348
C        -23.90348       29.58337       40.95004
O        -24.89440       29.15653       41.52568
H        -22.13977       29.54049       38.21258
H        -22.31433       28.36417       40.17210
H        -23.94792       27.87767       39.62781
N        -23.38153       30.79713       41.28056
C        -23.91529       31.65564       42.33879
C        -24.70267       32.84638       41.79715
O        -25.14879       33.65735       42.59778
C        -22.78411       32.14085       43.27381
C        -21.81335       33.09102       42.60106
N        -21.74836       34.39031       42.97715
O        -21.08130       32.68901       41.71103
H        -22.59497       31.13601       40.71899
H        -24.63104       31.07936       42.96579
H        -22.23201       31.27436       43.69648
H        -23.26550       32.66671       44.12729
H        -22.36065       34.76005       43.71844
H        -21.09448       35.03728       42.51217
N        -24.96101       33.00019       40.46884
C        -25.80371       34.06152       39.95097
C        -25.05264       35.31788       39.56928
O        -25.72160       36.22813       39.10622
H        -24.67032       32.27116       39.81038
H        -26.62542       34.28908       40.66473
H        -26.29530       33.69205       39.02452
N        -23.69883       35.46558       39.71404
C        -22.97728       36.65181       39.24395
C        -21.54015       36.67889       39.71627
O        -20.77700       35.77937       39.39195
C        -22.87860       36.71638       37.69379
C        -24.15218       37.05320       36.98540
C        -24.77577       38.28786       37.22548
C        -24.71562       36.16008       36.06431
C        -25.95769       38.61709       36.56377
C        -25.89860       36.49192       35.40259
C        -26.52484       37.72179       35.65358
O        -27.66802       38.05612       35.02672
H        -23.16184       34.72102       40.18119
H        -23.47701       37.56321       39.63735
H        -22.45001       35.76173       37.32107
H        -22.16747       37.52038       37.40212
H        -24.34556       38.99402       37.92480
H        -24.24048       35.21217       35.85960
H        -26.43184       39.56979       36.75891
H        -26.32471       35.79553       34.69590
H        -28.09621       37.46265       34.39703
N        -21.08458       37.76857       40.39291
C        -19.67674       38.04813       40.61987
C        -19.38144       37.87319       42.09292
O        -18.58828       36.99772       42.40398
C        -19.34542       39.44541       39.97729
C        -19.57293       39.43509       38.43845
C        -17.93395       39.98289       40.25912
C        -18.59765       38.55093       37.64901
H        -21.75950       38.49094       40.68966
H        -19.04085       37.29187       40.11256
H        -20.05356       40.19549       40.39649
H        -19.46218       40.47378       38.05624
H        -20.61122       39.12027       38.21275
H        -17.84379       40.31336       41.29317
H        -17.14769       39.23662       40.02513
H        -17.75019       40.90874       39.67256
H        -18.82354       38.62631       36.56560
H        -17.54782       38.88102       37.79392
H        -18.68641       37.48992       37.94337
N        -19.99285       38.60487       43.06954
C        -19.72535       38.34908       44.49130
C        -18.26583       38.61638       44.88327
O        -17.88516       38.28096       45.99545
C        -20.67921       39.16314       45.37744
O        -22.00459       38.82371       45.07044
H        -20.68518       39.31888       42.79653
H        -19.93275       37.27156       44.68290
H        -20.51639       40.24937       45.19883
H        -20.47959       38.92240       46.44623
H        -22.57703       39.34298       45.69263
N        -17.39511       39.19766       44.00761
C        -15.97831       39.45724       44.21354
C        -15.12654       38.19460       44.29808
O        -13.92950       38.33325       44.50261
C        -15.76261       40.41500       45.38696
H        -17.75988       39.50576       43.11692
H        -15.60069       39.99786       43.31421
H        -14.69124       40.70376       45.44431
H        -16.35249       41.34173       45.21322
H        -16.06426       39.96375       46.35103
N        -15.63657       36.94672       44.05625
C        -14.81324       35.74112       44.02123
C        -14.73181       35.19433       42.60615
O        -15.39671       35.70867       41.71794
C        -15.38825       34.69763       44.98108
H        -16.62971       36.83501       43.82765
H        -13.77306       35.97517       44.33299
H        -14.76314       33.78026       44.98904
H        -15.41873       35.11027       46.01142
H        -16.42128       34.42137       44.67609
N        -13.85839       34.18127       42.31753
C        -13.63802       33.62808       40.98077
C        -13.08707       34.65331       39.98818
O        -12.92425       34.29869       38.82791
C        -14.91071       32.93900       40.43403
C        -15.37942       31.80436       41.35706
C        -16.54669       31.07301       40.76163
O        -16.46053       29.88227       40.50647
O        -17.69685       31.72414       40.51239
H        -13.29310       33.78802       43.08444
H        -12.86241       32.83265       41.05553
H        -14.67191       32.49353       39.44201
H        -15.72772       33.67341       40.28434
H        -15.67821       32.21324       42.34563
H        -14.54179       31.08779       41.50876
N        -12.73771       35.92158       40.35493
C        -12.22457       36.88175       39.40257
H        -11.29502       36.49530       38.93378
H        -12.98545       37.07914       38.61790
H        -11.99154       37.83793       39.91844
H        -12.81237       36.23163       41.33202
Ca       -20.20413       32.14667       38.75874
O        -20.19501       29.82375       40.41135
H        -20.27468       29.81580       41.39770
H        -19.28759       29.47688       40.22527
O        -17.63745       32.02861       37.41268
H        -17.62556       31.03863       37.40335
H        -16.89967       32.29720       36.81076
O        -18.93049       34.75679       37.46227
H        -19.47915       35.36725       36.90805
H        -18.03505       35.17793       37.49164
O        -18.64806       34.37553       41.02253
H        -18.69457       34.28773       42.00755
H        -17.76939       34.79667       40.85330

Ca 1.0



