%chk=apoCaM-CA-Ng.loop4.water4.frame264.chk
%nprocshared=20
%mem=10GB
%nosave
#b3lyp/svp scf=(tight,noincore,xqc) Test 
#IOP(5/87=12) Density=Current Pop=(MK,readradii) iop(6/33=2) iop(6/42=6)

apoCaM-CA-Ng.loop4.water4.frame264 

   -3  1 
C         47.40455       35.83611        8.69884
C         48.88933       36.00417        8.78365
O         49.49706       35.33316        9.59272
H         46.89873       36.80029        8.90158
H         47.13656       35.47283        7.68449
H         47.05751       35.08072        9.43939
N         49.54602       36.85978        7.94975
C         51.00048       36.98652        7.87203
C         51.60569       35.68490        7.38746
O         52.34003       35.04128        8.11117
C         51.65331       37.69558        9.09579
C         51.49801       37.19020       10.51478
O         52.13849       36.09647       10.97806
O         50.92753       37.90487       11.32424
H         48.98582       37.40322        7.27596
H         51.23257       37.70180        7.04977
H         51.22151       38.72186        9.08763
H         52.74127       37.81287        8.89835
N         51.30632       35.28161        6.11242
C         51.72398       34.07471        5.39126
C         53.22727       34.02808        5.12693
O         53.60799       34.16718        3.97199
C         51.12989       32.77746        6.00408
C         51.41379       31.51759        5.13411
C         49.61066       32.94304        6.21769
C         50.83798       31.55280        3.70864
H         50.68698       35.90754        5.57315
H         51.24934       34.17269        4.38966
H         51.59107       32.60010        6.99958
H         50.98520       30.63294        5.65245
H         52.50936       31.35629        5.05778
H         49.40310       33.75197        6.94749
H         49.09177       33.19956        5.27114
H         49.16582       32.01216        6.61441
H         51.29154       32.36621        3.10675
H         51.06583       30.59572        3.19459
H         49.73541       31.67316        3.71611
N         54.14557       33.86003        6.12040
C         55.57979       33.92289        5.87874
C         56.06116       32.70522        5.07752
O         56.58288       32.92509        3.99387
C         56.33213       34.22446        7.20417
C         57.81641       34.36776        7.01919
O         58.41548       35.54569        7.27960
O         58.49073       33.41482        6.66325
H         53.83169       33.72297        7.08505
H         55.78147       34.83311        5.26669
H         56.14172       33.49270        8.00359
H         55.93624       35.18811        7.59430
N         55.95312       31.40368        5.48729
C         55.37578       31.00271        6.75684
C         55.53565       29.52620        7.07738
O         55.86955       28.75715        6.18751
H         56.34440       30.68120        4.86392
H         54.30264       31.28364        6.80182
H         55.93205       31.52727        7.50527
N         55.31231       29.01155        8.32925
C         54.98493       29.75900        9.54352
C         53.71421       30.58313        9.36471
O         53.79144       31.80402        9.37500
C         56.21614       30.55175       10.07187
C         55.97018       31.13972       11.43448
O         56.05764       32.34480       11.61004
O         55.67995       30.33602       12.47501
H         55.39936       27.98870        8.44013
H         54.79724       29.02318       10.35482
H         56.53548       31.37014        9.41367
H         57.07553       29.85351       10.15965
N         52.48055       30.00949        9.24421
C         52.21935       28.58820        9.35104
C         52.59061       27.82317        8.11250
O         52.76064       28.40356        7.04918
H         51.66567       30.62407        9.17483
H         51.13320       28.41242        9.50811
H         52.72838       28.18658       10.25142
N         52.71814       26.47436        8.19692
C         53.02436       25.61905        7.05986
C         51.86564       25.62636        6.07864
O         52.08924       25.67400        4.87769
C         53.26893       24.17632        7.55250
C         53.87990       23.29029        6.45314
C         54.09667       21.87519        6.92508
N         54.87007       21.60429        8.00313
O         53.57384       20.95582        6.31423
H         52.59606       26.03780        9.12482
H         53.96791       25.97046        6.58334
H         52.31963       23.73922        7.93553
H         53.99529       24.21737        8.39229
H         54.86050       23.71712        6.14850
H         53.21475       23.27598        5.56290
H         55.33089       22.35768        8.53255
H         55.00659       20.63110        8.31426
N         50.58677       25.60213        6.55464
C         49.39181       25.54040        5.71694
C         48.44137       24.41852        6.14052
O         47.56891       24.08088        5.35162
C         48.63549       26.89696        5.73271
C         49.47053       27.99949        5.06865
C         48.23622       27.33209        7.15415
H         50.46886       25.67986        7.57174
H         49.68874       25.32359        4.66653
H         47.70570       26.78630        5.13090
H         49.70839       27.71716        4.02100
H         48.89976       28.95261        5.04620
H         50.41875       28.16735        5.61918
H         49.12897       27.52411        7.78719
H         47.65064       28.26818        7.09753
H         47.60440       26.56480        7.64688
N         48.47416       23.86728        7.38984
C         47.53821       22.85682        7.85984
C         46.52809       23.45682        8.82790
O         45.38874       23.01503        8.81716
C         48.30951       21.72277        8.56038
C         49.30134       21.06294        7.63927
N         50.62363       21.07745        7.92490
O         48.90678       20.50291        6.62740
H         49.15800       24.19446        8.07956
H         46.96511       22.41453        7.01367
H         47.59793       20.94851        8.92097
H         48.83780       22.13895        9.44726
H         50.98241       21.54472        8.77064
H         51.29267       20.61595        7.29451
N         46.86793       24.45386        9.70087
C         45.94895       24.96834       10.72242
C         46.46899       26.23845       11.40375
O         47.57320       26.66938       11.11608
C         45.64368       23.84316       11.75051
C         46.86274       23.00291       12.09800
C         46.85886       21.62931       11.79003
C         48.01011       23.55780       12.68992
C         47.97294       20.83339       12.06318
C         49.12509       22.75878       12.96550
C         49.11200       21.39630       12.65139
O         50.19752       20.64067       12.91278
H         47.82079       24.83502        9.66250
H         45.00387       25.29753       10.23679
H         44.88897       23.17317       11.28783
H         45.16432       24.24366       12.66691
H         45.99514       21.17047       11.32528
H         48.05800       24.60523       12.92614
H         47.95012       19.78097       11.81004
H         50.00406       23.20165       13.41702
H         50.22919       19.69660       12.70068
N         45.67499       26.88857       12.31945
C         45.98218       28.13298       13.03788
C         45.77477       29.37824       12.18698
O         44.95222       30.20046       12.56917
C         47.36037       28.11902       13.72884
C         47.43887       27.00844       14.78462
C         48.80494       26.94104       15.39991
O         48.96061       27.13656       16.72272
O         49.77899       26.69044       14.70741
H         44.76807       26.45833       12.55139
H         45.23056       28.23003       13.85649
H         47.51999       29.09220       14.24498
H         48.17082       28.01411       12.98054
H         47.20628       26.02748       14.33406
H         46.68041       27.20301       15.57388
N         46.47016       29.60656       11.03952
C         46.29644       30.81375       10.23567
C         44.85083       30.93969        9.79023
O         44.22239       31.94397       10.09550
C         47.21382       30.80012        8.99108
C         48.71747       30.61500        9.26866
C         49.33693       31.74614       10.02836
O         49.03120       31.96801       11.18834
O         50.26996       32.50043        9.42258
H         47.14181       28.90300       10.72854
H         46.55920       31.70084       10.85254
H         47.06979       31.74474        8.41924
H         46.90090       29.96548        8.33659
H         49.22632       30.53864        8.28700
H         48.93248       29.66671        9.79728
N         44.25558       29.93543        9.08562
C         42.87355       29.96991        8.65266
H         42.36019       30.91069        8.94246
H         42.83135       29.87148        7.54812
H         42.32701       29.11863        9.11037
H         44.79941       29.09006        8.85652
Ca        51.50756       33.99843       10.52623
O         54.76145       35.26955       10.09489
H         55.57871       34.85146       10.46407
H         54.83627       36.22456       10.34581
O         52.65993       31.59297       12.22093
H         53.30970       31.54899       12.96606
H         51.87336       31.08868       12.54681
O         50.35623       34.15852       13.40854
H         50.47764       33.30051       12.93167
H         50.36978       33.90688       14.36541
O         53.74072       34.37112       13.03740
H         53.58735       35.29445       13.35985
H         54.48585       34.03294       13.59472

Ca 1.0



