%chk=apoCaM-CA-Ng.loop1.water1.frame835.chk
%nprocshared=20
%mem=10GB
%nosave
#b3lyp/svp scf=(tight,noincore,xqc) Test 
#IOP(5/87=12) Density=Current Pop=(MK,readradii) iop(6/33=2) iop(6/42=6)

apoCaM-CA-Ng.loop1.water1.frame835 

   0  1 
C         38.03042       87.16268       95.90204
C         37.01714       87.28780       94.80225
O         36.55106       86.27799       94.29421
H         38.97509       87.65941       95.59315
H         37.64756       87.65365       96.82111
H         38.24601       86.09647       96.12554
N         36.63833       88.52332       94.37536
C         35.68220       88.74814       93.29293
C         36.10861       88.04514       92.00283
O         37.27831       88.04499       91.65049
C         35.37899       90.24915       93.09626
C         36.59810       91.12362       93.02222
O         37.44469       90.94497       92.16607
O         36.76749       92.10458       93.93099
H         37.06092       89.33728       94.84736
H         34.70761       88.30291       93.59389
H         34.78412       90.59309       93.97166
H         34.74579       90.38376       92.19199
N         35.16760       87.34364       91.30715
C         35.41980       86.39926       90.21380
C         36.15012       86.97198       89.00393
O         36.69810       86.18211       88.24602
C         34.05929       85.75847       89.85172
C         34.01775       84.68668       88.75932
C         32.61885       84.02713       88.79798
C         32.36914       83.01257       87.67830
N         32.08927       83.68199       86.40899
H         34.19580       87.42438       91.64594
H         36.08531       85.60855       90.62761
H         33.35177       86.56507       89.55253
H         33.68335       85.29997       90.79410
H         34.78335       83.90390       88.95205
H         34.23031       85.16488       87.78020
H         31.81023       84.79116       88.76497
H         32.54165       83.49168       89.76962
H         31.47418       82.40642       87.94296
H         33.23627       82.32150       87.58935
H         32.02052       82.96729       85.64872
H         31.17724       84.19007       86.47245
H         32.83107       84.37618       86.18564
N         36.23862       88.30808       88.75869
C         37.07120       88.84776       87.67802
C         38.54527       88.56105       87.94063
O         38.92386       88.53595       89.10187
C         36.80423       90.36122       87.44883
C         36.63751       91.22625       88.68352
O         35.54017       91.71972       88.89680
O         37.63081       91.50594       89.55223
H         35.71068       88.94964       89.36595
H         36.79050       88.35275       86.72781
H         35.82891       90.41138       86.91471
H         37.56296       90.80015       86.76614
N         39.47163       88.35273       86.95061
C         39.20943       88.28018       85.51808
C         38.55094       86.96800       85.14103
O         39.11541       85.92012       85.42248
H         40.45761       88.24747       87.23805
H         40.18203       88.29821       84.97817
H         38.63555       89.17157       85.18586
N         37.34379       86.95096       84.51314
C         36.60643       85.72298       84.22516
C         37.11334       84.98107       82.99544
O         37.31629       85.59456       81.95652
C         35.11104       86.04460       84.05017
C         34.32005       84.79295       83.77317
O         34.43414       83.72713       84.58809
O         33.61635       84.71722       82.77971
H         36.88440       87.85676       84.32927
H         36.65250       85.05842       85.11739
H         34.95675       86.77670       83.22668
H         34.74397       86.49974       84.99650
N         37.16254       83.61367       83.01308
C         37.42223       82.80100       81.83335
C         38.86196       82.81701       81.38240
O         39.15575       82.19629       80.37081
H         36.90269       83.11717       83.87831
H         36.75015       83.12820       81.01048
H         37.17642       81.74060       82.06371
N         39.82294       83.45344       82.10464
C         41.23472       83.46632       81.74802
C         41.72129       84.89654       81.61750
O         40.96293       85.81569       81.89827
C         42.04608       82.69021       82.82236
C         41.84036       83.22591       84.24906
O         41.67615       81.33581       82.80644
H         39.55614       83.94061       82.96943
H         41.40050       82.97136       80.76563
H         43.13391       82.77409       82.59756
H         42.17880       80.90798       82.06442
H         42.48924       82.66989       84.95692
H         42.08971       84.30460       84.31214
H         40.79220       83.08027       84.58638
N         42.99662       85.15528       81.20286
C         43.55684       86.50223       81.17633
C         43.89390       86.89148       79.74621
O         43.37166       87.89507       79.27935
C         44.79862       86.61691       82.11128
C         44.57439       85.86835       83.45383
C         45.10238       88.11083       82.35213
C         45.77598       85.91898       84.39868
H         43.60285       84.36594       80.93410
H         42.80003       87.22111       81.56408
H         45.66988       86.13446       81.61636
H         44.40884       84.79286       83.23167
H         43.67692       86.25962       83.97914
H         44.25613       88.58805       82.89640
H         46.02474       88.25003       82.94852
H         45.24759       88.64701       81.39215
H         45.95082       86.94839       84.76986
H         45.57845       85.27293       85.28010
H         46.68827       85.54679       83.88529
N         44.71779       86.11696       78.97409
C         45.00651       86.41023       77.56898
C         46.50654       86.41685       77.29688
O         47.27898       85.98087       78.14193
C         44.31451       85.34077       76.67869
C         42.79808       85.27665       76.91498
O         44.56877       85.55794       75.31342
H         45.10076       85.24672       79.37503
H         44.60802       87.41375       77.30248
H         44.73235       84.34387       76.94329
H         44.15454       86.42565       75.06521
H         42.57041       85.02066       77.97105
H         42.32645       86.25254       76.67189
H         42.35205       84.49136       76.26912
N         46.98555       86.91413       76.11638
C         48.39052       86.88096       75.71973
C         49.02987       88.26187       75.78137
O         50.23711       88.34301       75.62808
C         48.48833       86.27276       74.29290
C         49.92507       86.03014       73.80661
O         47.82683       87.12055       73.38592
H         46.31702       87.35483       75.46567
H         48.95795       86.23920       76.43089
H         47.97359       85.28453       74.32892
H         47.62498       86.58482       72.57560
H         50.46517       85.36408       74.51103
H         49.90016       85.54208       72.80927
H         50.48787       86.97689       73.68433
N         48.30284       89.38803       76.05146
C         48.93972       90.69772       76.16441
C         47.99929       91.74210       76.74572
O         46.79454       91.54861       76.78133
C         49.50819       91.18123       74.80094
C         48.41269       91.39211       73.73476
C         49.00867       91.89878       72.41018
C         47.93958       92.28803       71.37072
N         47.12686       91.15172       70.93399
H         47.29596       89.30454       76.22869
H         49.76626       90.58833       76.90108
H         50.25011       90.45394       74.41143
H         50.04696       92.14115       74.95712
H         47.69013       92.14977       74.10574
H         47.87576       90.43491       73.56386
H         49.69245       91.13329       71.98188
H         49.60245       92.81502       72.62031
H         48.45770       92.71645       70.48379
H         47.28038       93.07969       71.79150
H         47.73697       90.40880       70.52281
H         46.57143       90.76378       71.72863
H         46.45738       91.48039       70.20041
N         48.52887       92.89176       77.25047
C         47.72014       93.96270       77.82015
C         46.82361       93.45406       78.95164
O         45.61783       93.60663       78.81022
C         48.60585       95.15086       78.26018
C         49.30495       95.82400       77.06702
C         50.19661       96.93800       77.53460
O         51.39442       96.90378       77.30075
O         49.68103       97.98028       78.21375
H         49.55355       92.99347       77.23598
H         47.04624       94.35331       77.02339
H         49.38167       94.81612       78.97071
H         47.96725       95.91062       78.76230
H         48.54287       96.23574       76.37118
H         49.91987       95.08643       76.50897
N         47.25741       92.81734       80.08009
C         48.63418       92.51535       80.40362
H         49.21324       93.44002       80.56875
H         48.67102       91.94664       81.35758
H         49.09400       91.88829       79.61372
H         46.54433       92.49858       80.75513
Ca        39.83655       91.02387       89.62218
O         40.36136       88.26897       92.51081
H         39.68421       87.54905       92.56268
H         41.16245       87.88194       92.94500

Ca 1.0



