%chk=apoCaM-CA-Ng.loop4.water2.frame28.chk
%nprocshared=20
%mem=10GB
%nosave
#b3lyp/svp scf=(tight,noincore,xqc) Test 
#IOP(5/87=12) Density=Current Pop=(MK,readradii) iop(6/33=2) iop(6/42=6)

apoCaM-CA-Ng.loop4.water2.frame28 

   -3  1 
C         64.66162       70.61828       41.79952
C         63.68078       71.78076       41.68967
O         63.47604       72.28795       42.97844
H         65.62653       70.97871       42.21969
H         64.24891       69.83882       42.47422
H         64.84637       70.16854       40.80248
N         64.21326       72.80272       40.77083
C         63.40732       74.02952       40.60794
C         63.35104       74.88799       41.85893
O         62.28549       75.08556       42.40825
C         62.11033       73.93095       39.73085
C         61.08550       72.80590       39.81545
O         60.36905       72.51019       40.91783
O         60.82655       72.19126       38.79220
H         64.34526       72.37024       39.82694
H         64.01259       74.70446       39.95930
H         62.47129       73.89047       38.67692
H         61.57222       74.89998       39.81897
N         64.50119       75.49761       42.28866
C         64.66778       76.46065       43.38284
C         63.94102       77.77282       43.08085
O         64.61494       78.75949       42.81774
C         64.34823       75.85936       44.78093
C         64.66579       76.83616       45.94592
C         65.08612       74.52625       44.99963
C         66.14149       77.24007       46.08404
H         65.36227       75.28619       41.76012
H         65.75321       76.70473       43.38829
H         63.26585       75.63627       44.82593
H         64.36306       76.34691       46.89196
H         64.05780       77.75921       45.84017
H         64.79878       73.79610       44.22860
H         66.18564       74.64614       44.93530
H         64.81848       74.09248       45.98720
H         66.26199       77.89356       46.97309
H         66.79550       76.35828       46.23267
H         66.49242       77.80428       45.19756
N         62.58110       77.86943       43.09791
C         61.84716       79.06175       42.70799
C         61.60585       79.99616       43.89503
O         61.98335       81.15076       43.74706
C         60.58142       78.69059       41.90259
C         60.87233       78.02488       40.57989
O         62.13552       77.79202       40.17196
O         59.94339       77.69821       39.85831
H         62.01927       77.06636       43.38592
H         62.45522       79.65387       41.98282
H         60.00624       79.61849       41.68779
H         59.95485       77.98823       42.47175
N         61.07125       79.66491       45.11468
C         60.64314       78.36071       45.59888
C         59.28474       77.92683       45.08130
O         58.69714       78.64227       44.28400
H         61.04948       80.41867       45.82007
H         60.53015       78.44151       46.70016
H         61.44013       77.61880       45.42614
N         58.65450       76.79671       45.53055
C         59.14059       75.95271       46.62621
C         60.47052       75.27368       46.31905
O         60.83624       75.21140       45.15474
C         58.05921       74.90976       47.02085
C         57.71801       73.95015       45.91090
O         56.58209       73.90997       45.46601
O         58.64976       73.10795       45.42479
H         57.72527       76.58959       45.13100
H         59.28868       76.63652       47.48765
H         57.14213       75.46424       47.31895
H         58.37190       74.30444       47.89314
N         61.27838       74.74369       47.29095
C         60.99544       74.75331       48.72238
C         62.01689       75.54193       49.50099
O         62.95482       76.07102       48.92506
H         62.16968       74.31377       46.99722
H         60.97895       73.70709       49.09521
H         60.02225       75.21223       48.95724
N         61.85627       75.69818       50.84583
C         62.76427       76.49775       51.66614
C         64.16250       75.89644       51.78978
O         65.04163       76.59335       52.27540
C         62.15401       76.77901       53.05675
C         61.95208       75.51924       53.92348
C         61.26597       75.82307       55.23534
N         60.97880       74.81677       56.09077
O         60.95310       76.96821       55.52912
H         61.01125       75.29001       51.27129
H         62.86260       77.48727       51.16336
H         61.16901       77.27233       52.89771
H         62.80701       77.49386       53.60518
H         62.93643       75.04773       54.13164
H         61.32073       74.78381       53.38619
H         61.22283       73.84650       55.85613
H         60.50168       75.00492       56.98435
N         64.44715       74.62863       51.36502
C         65.79718       74.06300       51.36034
C         65.92568       72.79144       52.19584
O         67.02212       72.24271       52.18856
C         66.25760       73.78511       49.89732
C         66.38739       75.08388       49.09369
C         65.33550       72.80089       49.16369
H         63.68653       74.04426       50.99629
H         66.52770       74.78317       51.79141
H         67.27553       73.33643       49.93022
H         65.41336       75.59970       49.00505
H         67.10852       75.77103       49.58465
H         66.76512       74.85743       48.07479
H         65.25725       71.84664       49.72511
H         64.32260       73.23159       49.03655
H         65.73966       72.57593       48.15423
N         64.91567       72.26954       52.96057
C         65.10236       71.04348       53.74684
C         64.03398       69.96711       53.53824
O         64.23610       68.88325       54.06528
C         65.23117       71.36822       55.25521
C         63.99149       71.94094       55.89928
N         63.96763       72.16512       57.23317
O         63.00351       72.19277       55.23074
H         64.02648       72.78450       53.03145
H         66.06526       70.56657       53.46030
H         66.07238       72.07830       55.40974
H         65.48443       70.42701       55.79064
H         64.78744       71.94612       57.81769
H         63.12225       72.54325       57.68600
N         62.86203       70.18237       52.86200
C         61.80488       69.17013       52.79104
C         61.37053       68.88764       51.36662
O         61.00819       69.81368       50.65657
C         60.54833       69.62293       53.56785
C         60.73936       69.74634       55.06060
C         60.42155       70.94745       55.71387
C         61.18573       68.65147       55.82353
C         60.55543       71.05640       57.10138
C         61.32316       68.76379       57.20983
C         61.00666       69.96776       57.85385
O         61.12473       70.08734       59.19154
H         62.67113       71.10393       52.44725
H         62.13276       68.21246       53.24395
H         59.75902       68.85346       53.42728
H         60.16786       70.57572       53.13720
H         60.06094       71.79842       55.15045
H         61.42229       67.70653       55.35243
H         60.30319       71.98762       57.59239
H         61.66810       67.91186       57.78247
H         61.42343       69.35472       59.74914
N         61.25852       67.59159       50.93951
C         60.61254       67.17782       49.69408
C         61.35680       67.58951       48.43578
O         60.84395       67.31105       47.35992
C         59.13267       67.63915       49.65491
C         58.32876       67.08312       50.84162
C         56.88630       67.49075       50.75863
O         55.92468       66.55199       50.66897
O         56.57662       68.67139       50.78319
H         61.55361       66.83555       51.57528
H         60.59106       66.06464       49.66996
H         58.66217       67.26006       48.72078
H         59.06370       68.74664       49.63730
H         58.74584       67.45311       51.80025
H         58.39249       65.97305       50.83785
N         62.59006       68.17189       48.46872
C         63.33741       68.50200       47.26047
C         64.54308       67.58714       47.08845
O         65.24400       67.74518       46.09815
C         63.78132       69.97827       47.30548
C         62.63869       70.99604       47.47417
C         61.67415       71.02605       46.32295
O         61.56453       72.03829       45.65279
O         60.89136       69.96681       46.04943
H         63.05204       68.34522       49.37308
H         62.71916       68.34341       46.35298
H         64.34484       70.22946       46.37974
H         64.47223       70.10096       48.16752
H         63.10379       71.99904       47.55357
H         62.08247       70.80711       48.41490
N         64.83482       66.59143       47.97932
C         65.95016       65.68017       47.81937
H         66.62854       65.77236       48.69266
H         65.56597       64.63927       47.77177
H         66.53418       65.87731       46.89637
H         64.24743       66.44372       48.81135
Ca        61.27992       72.71050       42.90591
O         60.30059       69.71182       42.63796
H         60.98910       69.84631       43.33624
H         60.80904       69.71520       41.78841
O         58.60447       74.71402       42.52209
H         58.34988       75.53436       42.02990
H         57.75875       74.39721       42.92754

Ca 1.0



