%chk=apoCaM-CA-Ng.loop1.water4.frame48.chk
%nprocshared=20
%mem=10GB
%nosave
#b3lyp/svp scf=(tight,noincore,xqc) Test 
#IOP(5/87=12) Density=Current Pop=(MK,readradii) iop(6/33=2) iop(6/42=6)

apoCaM-CA-Ng.loop1.water4.frame48 

   0  1 
C         79.23348       62.80857       65.13425
C         78.94619       62.94715       66.59951
O         78.47566       63.99418       67.02083
H         80.31574       62.60659       64.98701
H         78.64544       61.96557       64.71555
H         78.96805       63.73935       64.58903
N         79.22813       61.91521       67.44200
C         79.02329       61.97012       68.88586
C         80.34470       61.90350       69.64448
O         80.31512       61.81687       70.86372
C         78.01101       60.89394       69.34040
C         78.46645       59.47484       69.14816
O         78.67258       59.03186       68.03016
O         78.60060       58.66769       70.21802
H         79.63912       61.06025       67.03827
H         78.57355       62.94102       69.16802
H         77.05241       61.04036       68.79631
H         77.80242       61.04909       70.42210
N         81.53861       62.03978       68.99468
C         82.83645       62.12087       69.65245
C         83.35749       63.54049       69.47924
O         83.40438       63.98818       68.34063
C         83.85248       61.16467       68.99000
C         83.67264       59.66648       69.27110
C         82.38422       59.04703       68.71965
C         82.43029       57.51924       68.88058
N         81.20636       56.89097       68.39138
H         81.54132       62.18500       67.97469
H         82.77237       61.85609       70.71867
H         84.85866       61.41564       69.39390
H         83.88434       61.34322       67.89184
H         83.73849       59.48196       70.36579
H         84.53504       59.15908       68.78461
H         82.28378       59.29018       67.63955
H         81.50985       59.44924       69.26905
H         82.56689       57.25510       69.94855
H         83.29848       57.11713       68.31201
H         81.29523       55.85367       68.48809
H         80.39305       57.20823       68.96355
H         81.05332       57.12886       67.38484
N         83.82207       64.33071       70.49529
C         83.93783       64.00753       71.91651
C         84.77811       62.75219       72.16331
O         84.30149       61.83698       72.81765
C         82.55938       63.96636       72.61620
C         81.77150       65.24101       72.50191
O         80.56170       65.30964       73.08484
O         82.20688       66.21229       71.90306
H         84.18628       65.25870       70.22447
H         84.48394       64.84388       72.40890
H         82.72385       63.78998       73.69956
H         81.93547       63.14765       72.22446
N         86.05966       62.62682       71.71562
C         86.71425       63.63958       70.91214
C         88.14950       63.26860       70.60474
O         88.35805       62.22372       70.00583
H         86.58127       61.77126       71.96526
H         86.63871       64.60639       71.43763
H         86.19026       63.73459       69.93985
N         89.20870       64.07221       70.92160
C         89.07802       65.35746       71.60360
C         88.65297       65.21687       73.06604
O         88.33075       66.23034       73.66919
C         90.38638       66.17881       71.52238
C         91.52941       65.59261       72.31367
O         92.07266       66.29884       73.32345
O         91.98090       64.49197       72.04259
H         90.13942       63.76744       70.59963
H         88.32004       65.95066       71.04564
H         90.18196       67.19992       71.91307
H         90.69069       66.28466       70.45838
N         88.71381       64.01779       73.72174
C         88.46978       63.87649       75.14963
C         87.53662       62.73066       75.45917
O         87.82281       61.61414       75.05149
H         89.05018       63.18273       73.22244
H         88.10731       64.82144       75.60849
H         89.44032       63.63056       75.63027
N         86.44195       62.92197       76.25118
C         85.58473       61.83620       76.71694
C         84.15086       62.05354       76.27148
O         83.60508       63.13197       76.45684
C         85.69452       61.69460       78.25346
C         84.84365       60.53410       78.78804
O         85.30889       62.88223       78.89802
H         86.23788       63.87374       76.59240
H         85.93515       60.86189       76.31004
H         86.75728       61.44407       78.49412
H         86.13823       63.32841       79.21355
H         85.12411       59.58185       78.28818
H         85.00318       60.41743       79.88048
H         83.76319       60.72285       78.61469
N         83.46747       61.00952       75.72546
C         82.07598       61.06248       75.28715
C         81.18268       61.50215       76.43946
O         81.18085       60.85672       77.47856
C         81.63794       59.66699       74.72716
C         82.47134       59.29671       73.46852
C         80.13640       59.64322       74.38808
C         82.23867       57.86794       72.98148
H         83.96542       60.11066       75.65879
H         81.97761       61.79177       74.45968
H         81.81916       58.90863       75.52212
H         83.55428       59.36099       73.68827
H         82.25360       60.01062       72.64361
H         79.80677       58.64095       74.05239
H         79.54480       59.86014       75.29334
H         79.89544       60.39051       73.60250
H         81.20268       57.71540       72.61980
H         82.92790       57.66244       72.13995
H         82.46225       57.14589       73.79507
N         80.34741       62.57089       76.27893
C         79.37070       62.99774       77.27954
C         77.95381       62.59764       76.87178
O         77.04910       62.77471       77.67478
C         79.48552       64.52021       77.56668
C         79.25081       65.41282       76.33534
O         80.72642       64.82160       78.15403
H         80.34500       63.04831       75.36549
H         79.55364       62.46120       78.23627
H         78.70172       64.78256       78.31049
H         81.43303       64.64720       77.47953
H         80.04305       65.25931       75.57746
H         78.26206       65.20646       75.87386
H         79.28457       66.48034       76.63659
N         77.69934       62.00046       75.66896
C         76.42055       61.45217       75.23183
C         75.34479       62.50422       75.05407
O         75.36356       63.54054       75.70246
C         75.91175       60.29840       76.13374
C         76.96900       59.20663       76.31843
O         74.76710       59.72863       75.54959
H         78.46728       61.87620       74.99891
H         76.61013       61.01727       74.22208
H         75.65038       60.71547       77.13274
H         74.29621       59.22208       76.26154
H         77.26546       58.78224       75.33542
H         77.86062       59.61610       76.83583
H         76.56063       58.38993       76.94985
N         74.37568       62.28233       74.12681
C         73.27872       63.19849       73.84887
C         73.51707       63.95584       72.55623
O         72.81437       64.93153       72.33051
C         71.90968       62.46125       73.87721
C         71.89757       61.13606       73.08185
C         70.51705       60.46462       73.07241
C         70.54421       59.04745       72.45931
N         71.27914       58.08891       73.29415
H         74.46992       61.43856       73.54471
H         73.25218       63.99572       74.62455
H         71.11646       63.14963       73.51143
H         71.67178       62.20181       74.93206
H         72.59777       60.44709       73.58638
H         72.23048       61.30051       72.03370
H         69.83038       61.10322       72.47542
H         70.11291       60.38893       74.10490
H         70.98025       59.07348       71.43600
H         69.49371       58.69269       72.37275
H         70.88102       58.07410       74.26169
H         71.18232       57.13235       72.88335
H         72.29740       58.31446       73.33417
N         74.50583       63.60914       71.68178
C         74.87084       64.41521       70.52817
C         74.29973       63.78970       69.27745
O         75.03416       63.35839       68.39842
C         76.40910       64.59186       70.48919
C         77.02692       65.25673       71.73989
C         76.51690       66.65456       71.99037
O         75.33972       66.83804       72.24956
O         77.34503       67.71795       71.97943
H         75.04366       62.74317       71.82718
H         74.40809       65.42129       70.56625
H         76.68986       65.18719       69.59306
H         76.86190       63.58415       70.39607
H         78.12818       65.29013       71.59233
H         76.82963       64.63315       72.63875
N         72.94697       63.76293       69.12401
C         72.30258       63.24358       67.94138
H         71.20196       63.37121       68.03142
H         72.64834       63.80396       67.04686
H         72.53225       62.16481       67.82661
H         72.34660       64.15761       69.86368
Ca        79.58487       67.64255       71.76045
O         82.36783       69.62536       71.72934
H         82.56871       69.92141       70.80597
H         83.00185       70.13271       72.29612
O         81.50012       68.15756       74.84092
H         81.27849       68.49741       75.74427
H         82.39744       67.75105       74.94188
O         77.96179       68.42000       74.78673
H         77.01856       68.24626       74.54162
H         77.96080       68.41512       75.77611
O         80.66133       68.02886       69.01106
H         79.79897       68.50608       69.11048
H         80.44580       67.08221       69.20758

Ca 1.0



