%chk=apoCaM-CA-Ng.loop2.water3.frame1215.chk
%nprocshared=20
%mem=10GB
%nosave
#b3lyp/svp scf=(tight,noincore,xqc) Test 
#IOP(5/87=12) Density=Current Pop=(MK,readradii) iop(6/33=2) iop(6/42=6)

apoCaM-CA-Ng.loop2.water3.frame1215 

   -2  1 
C         40.26615       -5.18402       98.57950
C         39.62615       -5.96290       97.46242
O         38.51833       -5.61683       97.07856
H         41.22192       -4.73985       98.22915
H         39.60184       -4.35769       98.91177
H         40.45392       -5.84884       99.44806
N         40.23495       -7.02338       96.85530
C         41.55611       -7.54045       97.21141
C         41.51690       -9.00693       97.61516
O         40.48731       -9.65401       97.49908
C         42.57503       -7.31697       96.07163
C         42.25568       -7.95486       94.74409
O         43.08553       -7.87799       93.85280
O         41.04117       -8.47738       94.46863
H         39.71711       -7.47656       96.09221
H         41.95093       -6.99533       98.09143
H         43.56198       -7.70378       96.40145
H         42.69753       -6.22556       95.90055
N         42.64332       -9.56572       98.15201
C         42.80294      -10.92802       98.65382
C         42.92755      -12.01306       97.58879
O         43.24804      -13.12312       97.98702
C         41.71821      -11.28286       99.68363
H         43.45714       -8.94727       98.29038
H         43.77950      -10.94418       99.18933
H         41.94271      -12.26173      100.15791
H         41.67700      -10.51068      100.48036
H         40.71900      -11.36583       99.20892
N         42.73776      -11.79730       96.24899
C         42.87451      -12.85994       95.23360
C         42.69246      -12.35234       93.79513
O         42.53787      -11.15910       93.58325
C         41.93734      -14.07146       95.51947
C         40.43529      -13.90228       95.47613
O         39.76137      -14.89764       95.68831
O         39.78007      -12.75117       95.20922
H         42.51312      -10.84272       95.94890
H         43.91398      -13.25305       95.29198
H         42.17793      -14.50919       96.50470
H         42.18806      -14.88000       94.80448
N         42.72539      -13.21470       92.73363
C         42.49226      -12.77954       91.36328
C         41.07272      -12.29100       91.14169
O         40.24847      -12.37037       92.04293
H         42.92790      -14.21211       92.88465
H         42.66851      -13.62474       90.66408
H         43.21167      -11.96868       91.11863
N         40.73945      -11.72380       89.94671
C         39.43257      -11.12949       89.67140
C         38.87051      -11.59517       88.34543
O         39.63010      -11.90971       87.43821
C         39.59399       -9.60489       89.61114
C         40.07832       -9.08155       90.93371
N         41.30865       -8.53572       91.04265
O         39.36127       -9.16898       91.91990
H         41.47812      -11.62659       89.23285
H         38.70149      -11.36936       90.47592
H         38.63262       -9.10473       89.36176
H         40.32572       -9.35792       88.80939
H         41.94084       -8.47775       90.23188
H         41.63840       -8.18757       91.94782
N         37.52731      -11.54030       88.12873
C         36.94890      -11.84770       86.82932
C         35.44036      -11.63770       86.77885
O         34.84877      -11.25021       87.77636
H         36.92279      -11.24515       88.90965
H         37.18569      -12.90243       86.57270
H         37.41674      -11.17965       86.07877
N         34.71405      -11.88593       85.64929
C         35.29585      -12.38493       84.40597
C         36.17540      -11.35061       83.71260
O         36.90697      -11.74326       82.81374
C         34.20192      -12.88212       83.42752
C         33.39264      -14.04185       84.02816
O         33.34466      -11.82087       83.09127
H         33.69215      -11.75379       85.70418
H         35.92783      -13.26502       84.65711
H         34.71000      -13.26051       82.50916
H         32.84429      -12.10039       82.28040
H         32.84622      -13.72893       84.94170
H         32.64749      -14.40525       83.28979
H         34.06729      -14.88515       84.28780
N         36.13826      -10.01992       84.03596
C         36.99113       -9.01916       83.39050
C         37.77980       -8.22226       84.43871
O         37.50177       -8.37651       85.62012
C         36.12893       -8.06638       82.49522
C         35.14536       -7.19717       83.32370
C         35.41561       -8.86872       81.39421
C         34.48041       -6.09109       82.50079
H         35.46445       -9.69353       84.74339
H         37.72391       -9.53901       82.73920
H         36.80410       -7.37223       81.97141
H         35.70617       -6.67688       84.12911
H         34.36647       -7.83119       83.79671
H         34.67395       -9.56963       81.82994
H         34.89688       -8.19817       80.68037
H         36.15993       -9.45031       80.80906
H         33.84073       -6.50507       81.69712
H         33.84035       -5.47213       83.16405
H         35.25482       -5.43277       82.05207
N         38.74382       -7.30422       84.11710
C         39.29081       -7.09751       82.78024
C         38.81945       -5.78396       82.17439
O         38.15583       -4.99070       82.82564
C         40.83883       -7.14649       82.83347
C         41.40824       -8.45454       83.32086
O         40.68702       -9.39082       83.62765
O         42.74477       -8.59524       83.40784
H         39.14446       -6.73736       84.88189
H         38.95698       -7.89245       82.08834
H         41.20341       -6.33453       83.50005
H         41.26052       -6.97149       81.82190
N         39.13129       -5.52923       80.87580
C         38.78147       -4.32107       80.13585
C         37.27665       -4.23937       79.86342
O         36.71364       -5.26118       79.49290
C         39.53670       -4.37110       78.78731
C         39.53167       -3.04638       78.08385
C         38.54173       -2.72866       77.14213
C         40.52601       -2.10205       78.39168
C         38.54891       -1.47710       76.51823
C         40.53126       -0.85635       77.76446
C         39.54279       -0.54277       76.82872
H         39.68698       -6.24666       80.38430
H         39.16030       -3.44202       80.69990
H         39.15089       -5.18434       78.13264
H         40.60259       -4.62567       78.98415
H         37.76410       -3.44284       76.90128
H         41.29394       -2.33167       79.12130
H         37.78214       -1.22976       75.79671
H         41.30060       -0.13524       78.00816
H         39.54725        0.42528       76.34657
N         36.56090       -3.06695       79.91017
C         37.10839       -1.74823       80.18810
C         37.20247       -1.44616       81.66633
O         37.78541       -0.42537       82.00032
C         36.09313       -0.80961       79.52258
C         34.78569       -1.53204       79.79339
C         35.17116       -2.97967       79.49539
H         38.09745       -1.59311       79.72083
H         36.13379        0.25010       79.85681
H         36.25444       -0.83428       78.42104
H         34.56772       -1.43952       80.88151
H         33.90181       -1.16378       79.23066
H         34.50311       -3.67704       80.04549
H         35.12278       -3.18702       78.40290
N         36.60871       -2.23763       82.60368
C         36.64195       -1.93304       84.02688
C         35.99989       -0.56886       84.27944
O         34.82059       -0.42286       83.98964
C         35.88131       -3.03648       84.79522
C         35.95074       -2.87455       86.31655
C         35.19641       -3.98544       86.98975
O         35.84003       -4.84268       87.80430
O         33.99715       -4.11799       86.80083
H         36.09303       -3.07481       82.29615
H         37.70239       -1.95450       84.35106
H         36.32415       -4.02239       84.53395
H         34.81713       -3.04231       84.46598
H         35.51079       -1.90326       86.62795
H         37.01527       -2.90200       86.63494
N         36.68103        0.49499       84.79630
C         38.08517        0.47102       85.14699
H         38.70403        0.25443       84.25223
H         38.39174        1.46520       85.53688
H         38.27504       -0.29025       85.93103
H         36.17268        1.38220       84.93721
Ca        40.32485      -10.59481       94.82130
O         37.71077       -8.83355       95.00182
H         37.28503       -8.10497       94.48513
H         37.48330       -8.63567       95.94517
O         37.76123      -11.28920       96.61902
H         38.21485      -11.69798       97.39806
H         36.88853      -11.75261       96.56242
O         37.35875      -11.39508       93.21787
H         36.77967      -11.32801       92.41754
H         36.83848      -11.94558       93.85547

Ca 1.0



