%chk=apoCaM-CA-Ng.loop2.water3.frame567.chk
%nprocshared=20
%mem=10GB
%nosave
#b3lyp/svp scf=(tight,noincore,xqc) Test 
#IOP(5/87=12) Density=Current Pop=(MK,readradii) iop(6/33=2) iop(6/42=6)

apoCaM-CA-Ng.loop2.water3.frame567 

   -2  1 
C         61.65159       25.40975       79.69259
C         60.67473       25.71212       78.59674
O         60.13299       26.80838       78.58314
H         62.49047       26.13544       79.65284
H         61.13925       25.49917       80.67384
H         62.06173       24.38274       79.59954
N         60.38334       24.78057       77.64375
C         59.41448       25.03063       76.58470
C         59.89244       26.17142       75.71276
O         60.90281       26.02313       75.04325
C         59.17975       23.74715       75.75626
C         58.12367       23.92087       74.69734
O         58.30496       24.67802       73.75682
O         56.97621       23.22041       74.77293
H         60.84579       23.85940       77.69360
H         58.44668       25.29600       77.06528
H         58.84505       22.95080       76.45593
H         60.12442       23.40522       75.27750
N         59.20270       27.34704       75.67681
C         59.59839       28.47200       74.83579
C         60.97386       29.01450       75.23608
O         61.41829       28.70785       76.33549
C         58.52300       29.56885       74.93907
H         58.35009       27.42907       76.25224
H         59.62515       28.09543       73.80122
H         58.47646       29.96406       75.97603
H         58.68472       30.42061       74.26105
H         57.53257       29.14040       74.67656
N         61.73112       29.83143       74.43972
C         61.38016       30.23867       73.07710
C         61.33437       29.05423       72.11392
O         61.83511       27.98732       72.43620
C         62.30048       31.38503       72.58779
C         63.77554       31.07771       72.51517
O         64.63146       32.05928       72.17072
O         64.21185       29.96935       72.78021
H         62.61457       30.18480       74.84077
H         60.37720       30.68424       73.10077
H         62.17829       32.23242       73.29879
H         61.96396       31.73269       71.58835
N         60.68171       29.16879       70.91832
C         60.53006       28.06194       69.97801
C         59.68240       26.92346       70.52153
O         59.16269       27.04299       71.62140
H         60.26791       30.07781       70.66520
H         61.53188       27.67688       69.71512
H         60.03285       28.43668       69.05656
N         59.47658       25.76076       69.83483
C         60.02625       25.43871       68.51986
C         61.00753       24.26526       68.61708
O         61.52282       23.84500       67.59001
C         58.83926       25.11880       67.57966
C         59.21961       25.05334       66.11970
N         59.10148       26.15146       65.33592
O         59.61375       24.00334       65.63508
H         58.89061       25.03806       70.28378
H         60.57058       26.30875       68.09979
H         58.08883       25.93234       67.68260
H         58.31842       24.18339       67.88513
H         58.77097       27.04550       65.72845
H         59.34933       26.11407       64.33624
N         61.31492       23.67921       69.81365
C         62.14895       22.49265       69.94275
C         63.60564       22.65660       69.54683
O         64.30322       21.64859       69.59328
H         60.89227       24.02763       70.68483
H         61.69734       21.68495       69.32775
H         62.12740       22.15727       71.00327
N         64.16385       23.84848       69.18700
C         65.56058       23.98604       68.76848
C         66.38074       24.67207       69.84504
O         66.02359       25.76140       70.28008
C         65.67803       24.75082       67.43297
C         65.05151       23.98160       66.27194
O         65.07156       26.01496       67.52724
H         63.58909       24.70495       69.22811
H         66.01459       22.98352       68.59783
H         66.76113       24.85831       67.18020
H         65.78199       26.66002       67.77991
H         65.18529       24.55825       65.33187
H         65.55381       22.99763       66.15162
H         63.96803       23.81869       66.44069
N         67.49544       24.06170       70.33941
C         68.29384       24.61064       71.43246
C         69.15333       25.82048       71.04979
O         69.48980       26.02441       69.89385
C         69.18237       23.54487       72.15498
C         68.33206       22.63952       73.07606
C         70.04826       22.70964       71.18288
C         69.19315       21.83998       74.06034
H         67.72971       23.13410       69.96212
H         67.57120       24.98821       72.18870
H         69.86016       24.11293       72.82968
H         67.67940       21.96341       72.48310
H         67.67593       23.28477       73.69681
H         69.43050       22.00967       70.58095
H         70.61867       23.36489       70.49464
H         70.77562       22.08202       71.73396
H         69.85018       21.11615       73.54086
H         69.82512       22.53262       74.65958
H         68.53983       21.27785       74.75941
N         69.50798       26.67678       72.05666
C         70.28257       27.90836       71.95744
C         71.20317       28.12322       73.18472
O         71.85626       29.16047       73.20271
C         69.29558       29.09069       71.89452
C         68.48661       29.09066       70.62112
O         69.02719       29.30486       69.54869
O         67.16585       28.85630       70.66235
H         69.07700       26.50259       72.95701
H         70.90014       27.91262       71.03379
H         69.81658       30.06840       71.94538
H         68.64641       29.03982       72.79294
N         71.32632       27.23988       74.23234
C         72.19762       27.47469       75.39517
C         71.40897       27.34799       76.70867
O         71.71013       26.45177       77.49071
C         73.40713       26.50711       75.29552
C         74.50501       26.72087       76.32712
C         75.07801       27.99319       76.52619
C         75.00860       25.63166       77.06577
C         76.11666       28.17107       77.44608
C         76.06113       25.81302       77.97261
C         76.61192       27.08191       78.16439
H         70.83125       26.33691       74.20678
H         72.62449       28.49466       75.35495
H         73.87679       26.68191       74.30414
H         73.05234       25.45213       75.31269
H         74.73001       28.85410       75.97390
H         74.60739       24.63600       76.92513
H         76.54522       29.15420       77.59469
H         76.45709       24.96860       78.52298
H         77.42648       27.22125       78.86475
N         70.39465       28.21327       77.04795
C         69.62693       28.17784       78.29757
C         68.77228       26.93995       78.55736
O         68.09018       26.92167       79.57166
C         68.69447       29.39052       78.18841
C         69.53034       30.34973       77.38001
C         70.09236       29.42234       76.30526
H         70.34342       28.31879       79.13923
H         67.81428       29.12931       77.55524
H         68.32593       29.77593       79.16437
H         68.98542       31.23501       76.99077
H         70.36656       30.69851       78.03079
H         69.33051       29.18507       75.53182
H         70.98010       29.91514       75.86107
N         68.76768       25.86802       77.71629
C         68.04646       24.63711       78.00144
C         69.04128       23.67746       78.59601
O         68.82551       23.20001       79.70148
C         67.40153       23.99722       76.75201
C         66.41823       24.88576       75.98724
C         67.03866       25.88270       75.06908
O         66.19982       26.57885       74.29005
O         68.24269       25.99519       74.95153
H         69.40588       25.86337       76.92108
H         67.22692       24.82223       78.73286
H         66.81900       23.12294       77.11829
H         68.16082       23.60958       76.04424
H         65.72286       25.39728       76.68347
H         65.82782       24.22994       75.31204
N         70.19938       23.40801       77.92893
C         71.26526       22.59678       78.46602
H         72.16978       23.23278       78.57623
H         71.01111       22.17311       79.45892
H         71.48766       21.77085       77.76119
H         70.36699       23.83719       77.00616
Ca        66.48950       27.96503       72.58533
O         63.84025       26.96259       75.00563
H         63.87766       27.88749       75.35281
H         63.05072       26.93419       74.41787
O         64.14719       28.23496       69.59285
H         63.47786       28.45793       68.89959
H         65.00886       28.47741       69.17301
O         63.68894       25.11944       72.34567
H         62.73156       24.94976       72.15972
H         64.15051       24.29597       72.04771

Ca 1.0



