%chk=apoCaM-CA-Ng.loop4.water3.frame323.chk
%nprocshared=20
%mem=10GB
%nosave
#b3lyp/svp scf=(tight,noincore,xqc) Test 
#IOP(5/87=12) Density=Current Pop=(MK,readradii) iop(6/33=2) iop(6/42=6)

apoCaM-CA-Ng.loop4.water3.frame323 

   -3  1 
C         40.75569       62.16843       33.60966
C         41.38847       61.45144       32.45557
O         42.54244       61.72761       32.16857
H         39.71480       61.82469       33.78063
H         41.34895       61.97685       34.52922
H         40.74456       63.25993       33.40755
N         40.70207       60.49311       31.76466
C         41.25750       59.72307       30.65641
C         42.48804       58.95907       31.11784
O         43.58021       59.23042       30.65746
C         41.36465       60.55728       29.34723
C         42.22751       61.78697       29.35183
O         43.56046       61.68546       29.45812
O         41.72438       62.88664       29.18292
H         39.74262       60.26264       32.06355
H         40.51867       58.93928       30.37370
H         40.32925       60.87939       29.09710
H         41.71038       59.89809       28.52128
N         42.32266       57.96199       32.04241
C         43.32803       57.08030       32.65315
C         44.05071       56.22027       31.61139
O         43.75446       55.03665       31.52524
C         44.27710       57.82885       33.63470
C         45.17205       56.85354       34.45359
C         43.48609       58.74357       34.59082
C         44.43101       55.88576       35.38784
H         41.35247       57.79099       32.35194
H         42.73032       56.38246       33.27901
H         44.94924       58.49056       33.04715
H         45.86556       57.45790       35.07440
H         45.78227       56.23920       33.76765
H         44.17809       59.26630       35.28494
H         42.93651       59.52106       34.02298
H         42.74541       58.17001       35.18502
H         43.77167       55.19709       34.82230
H         45.17325       55.26185       35.92892
H         43.83458       56.42927       36.14799
N         44.97430       56.75136       30.76001
C         45.52370       56.03737       29.61434
C         46.57604       54.98447       29.98461
O         46.40111       53.85146       29.56014
C         46.02609       57.05385       28.55597
C         46.48109       56.38178       27.29161
O         45.62654       55.61520       26.58719
O         47.62177       56.54178       26.88794
H         45.23676       57.73666       30.86521
H         44.67781       55.52552       29.09884
H         46.83767       57.69531       28.93826
H         45.18530       57.73390       28.29457
N         47.70894       55.23387       30.71191
C         47.96896       56.48697       31.39213
C         49.31157       56.52156       32.10334
O         49.62165       55.55556       32.78523
H         48.38812       54.46453       30.82370
H         47.18963       56.62687       32.15777
H         47.88913       57.29735       30.68696
N         50.14197       57.61554       32.10724
C         49.88701       58.90451       31.46798
C         48.52856       59.44640       31.89159
O         47.66380       59.61268       31.04172
C         50.09864       58.81218       29.93277
C         49.93993       60.15114       29.25943
O         49.12319       60.29360       28.36388
O         50.70441       61.19557       29.63252
H         51.00026       57.55532       32.67696
H         50.65706       59.62875       31.81535
H         49.41576       58.08566       29.45356
H         51.13452       58.46119       29.74288
N         48.22891       59.78046       33.17506
C         49.14739       59.84525       34.29310
C         49.40446       58.53577       34.98473
O         48.46493       57.82239       35.29982
H         47.28898       60.14552       33.34858
H         48.64891       60.45071       35.07825
H         50.06940       60.40320       34.02557
N         50.66704       58.24457       35.39800
C         51.00434       57.13175       36.28042
C         50.25419       57.12886       37.62151
O         50.32472       56.11829       38.30493
C         52.53518       57.09327       36.54395
C         53.14126       58.21244       37.44166
C         53.00040       59.63738       36.94036
N         54.08084       60.34513       36.53775
O         51.90526       60.17544       36.92511
H         51.41963       58.86150       35.06681
H         50.71501       56.20490       35.73651
H         53.06552       57.08310       35.56734
H         52.76810       56.13009       37.05006
H         54.22414       57.98015       37.53186
H         52.71803       58.15659       38.46660
H         55.02320       59.93164       36.54600
H         53.97016       61.31589       36.20682
N         49.55431       58.21275       38.07887
C         48.82502       58.22906       39.35297
C         49.46329       59.17349       40.36229
O         48.93229       59.26627       41.46474
C         47.32752       58.60766       39.14472
C         46.59019       57.57301       38.28726
C         47.14958       60.01335       38.55134
H         49.56364       59.07819       37.52759
H         48.84865       57.22366       39.82745
H         46.82840       58.60394       40.14012
H         46.65482       56.56928       38.75696
H         45.51559       57.84444       38.19928
H         47.01976       57.52004       37.27145
H         47.58350       60.07697       37.53444
H         46.06834       60.25310       38.48682
H         47.63053       60.78180       39.19274
N         50.59824       59.88248       40.09442
C         51.23126       60.76558       41.06394
C         51.36422       62.20485       40.56335
O         51.74694       63.03954       41.36812
C         52.62812       60.21023       41.41869
C         52.57922       58.78945       41.92761
N         51.92711       58.47977       43.07161
O         53.14613       57.90744       41.29951
H         51.06676       59.76131       39.18975
H         50.62252       60.80975       41.99397
H         53.11459       60.84862       42.18710
H         53.25860       60.22766       40.50489
H         51.45153       59.20768       43.62297
H         51.90475       57.50621       43.41060
N         51.13135       62.57137       39.25917
C         51.33683       63.93649       38.77736
C         50.17005       64.44745       37.94176
O         49.89835       63.89327       36.88632
C         52.58623       64.04706       37.86937
C         53.90801       63.93093       38.58837
C         54.72251       65.07070       38.73064
C         54.36128       62.70385       39.08973
C         55.96231       64.98320       39.36481
C         55.60766       62.61490       39.72102
C         56.41212       63.75267       39.85978
O         57.61421       63.65270       40.46219
H         50.86861       61.86402       38.56419
H         51.50240       64.63696       39.62483
H         52.56007       65.06203       37.41769
H         52.54176       63.32841       37.02288
H         54.39951       66.03304       38.35152
H         53.75913       61.81690       38.97215
H         56.57309       65.87216       39.46459
H         55.95240       61.65953       40.09513
H         58.20153       64.41575       40.56512
N         49.57230       65.62606       38.28901
C         48.79744       66.47971       37.38677
C         47.44813       65.95800       36.91519
O         46.75130       66.74666       36.28846
C         49.68476       66.92635       36.19545
C         50.92032       67.70792       36.68302
C         51.83110       68.07387       35.54775
O         51.43057       68.77927       34.63585
O         53.10533       67.63607       35.54110
H         49.82155       66.04938       39.19548
H         48.54409       67.40172       37.95858
H         49.10597       67.59012       35.51660
H         50.00533       66.03985       35.60748
H         51.49781       67.10050       37.40856
H         50.59202       68.63548       37.19989
N         46.96316       64.70846       37.17693
C         45.59430       64.34936       36.80163
C         44.57212       65.01685       37.71318
O         43.38738       64.88726       37.43556
C         45.36761       62.82657       36.85081
C         46.21163       62.02309       35.85540
C         45.88500       62.31487       34.41903
O         46.17101       63.38777       33.91436
O         45.33687       61.35243       33.65903
H         47.54427       64.01719       37.66898
H         45.39726       64.69714       35.76683
H         44.30142       62.59487       36.63097
H         45.58767       62.47477       37.88051
H         45.98824       60.94972       36.03123
H         47.29630       62.18303       36.03045
N         44.93978       65.72056       38.82498
C         43.98952       66.34045       39.72410
H         42.93757       66.18410       39.40674
H         44.11607       65.90822       40.73874
H         44.18655       67.43132       39.76878
H         45.93222       65.81928       39.07788
Ca        45.42001       61.57148       31.42879
O         46.29218       61.27170       28.34141
H         47.00223       61.85176       28.71500
H         45.79108       61.86277       27.72532
O         48.14745       63.03773       31.56666
H         48.32375       63.60390       32.35913
H         48.76288       62.27049       31.67240
O         45.15602       64.43798       30.60383
H         45.98282       64.72223       30.13920
H         45.19631       64.89055       31.48357

Ca 1.0



