%chk=apoCaM-CA-Ng.loop1.water5.frame614.chk
%nprocshared=20
%mem=10GB
%nosave
#b3lyp/svp scf=(tight,noincore,xqc) Test 
#IOP(5/87=12) Density=Current Pop=(MK,readradii) iop(6/33=2) iop(6/42=6)

apoCaM-CA-Ng.loop1.water5.frame614 

   0  1 
C         61.52010       11.54292       93.56178
C         60.67962       12.59250       94.23526
O         59.46312       12.52753       94.13602
H         62.60274       11.70108       93.75548
H         61.24575       10.54415       93.96510
H         61.34822       11.55248       92.46661
N         61.26975       13.56661       94.98235
C         60.53427       14.54599       95.77596
C         60.98410       15.96227       95.47958
O         62.17094       16.24578       95.55673
C         60.69723       14.26135       97.28739
C         62.12679       14.14681       97.76228
O         62.64373       15.00904       98.65881
O         62.82668       13.23044       97.36392
H         62.29853       13.57503       95.03849
H         59.44089       14.47324       95.58142
H         60.18579       13.30483       97.52744
H         60.17094       15.06719       97.84609
N         60.05375       16.92356       95.21774
C         60.36111       18.34408       95.08944
C         59.67834       19.17030       96.18046
O         59.88657       20.37641       96.19238
C         60.02156       18.83549       93.66296
C         58.56560       18.61393       93.21360
C         58.40831       18.98165       91.72789
C         57.03321       18.60866       91.14882
N         55.94255       19.37721       91.74684
H         59.06484       16.63951       95.16202
H         61.45187       18.51747       95.22091
H         60.68269       18.27275       92.96967
H         60.27137       19.91539       93.56928
H         57.87814       19.21126       93.84976
H         58.30815       17.54052       93.30995
H         59.16093       18.40275       91.14760
H         58.61069       20.06367       91.57231
H         56.84866       17.51958       91.28821
H         57.05382       18.80980       90.05464
H         55.84827       19.15717       92.76333
H         56.11078       20.40045       91.61259
H         55.04891       19.11755       91.26952
N         58.86777       18.61324       97.13862
C         58.20963       19.41992       98.16701
C         59.21543       20.07492       99.11534
O         60.35187       19.62377       99.16533
C         57.15829       18.58696       98.95754
C         57.68759       17.39848       99.72032
O         56.83117       16.63061      100.41989
O         58.87124       17.11443       99.71640
H         58.67479       17.60348       97.12076
H         57.66611       20.21583       97.61541
H         56.40022       18.21337       98.23783
H         56.63556       19.22895       99.69386
N         58.92041       21.17400       99.87431
C         57.65652       21.89998       99.83363
C         57.78803       23.24080       99.13928
O         56.75792       23.86750       98.93244
H         59.66712       21.56564      100.47051
H         57.26259       22.02510      100.86469
H         56.88922       21.35411       99.26472
N         58.99252       23.73224       98.71944
C         59.16780       24.98069       97.96847
C         60.63804       25.21336       97.59916
O         61.50374       24.42207       97.95712
C         58.57717       26.20306       98.72680
C         59.13854       26.38197      100.10690
O         58.31658       26.33066      101.17290
O         60.32791       26.59775      100.27110
H         59.83119       23.17559       98.92716
H         58.61595       24.88924       97.00655
H         57.47810       26.09859       98.80781
H         58.73184       27.13558       98.14746
N         60.99479       26.30178       96.86778
C         62.36023       26.57277       96.46338
C         62.81949       25.59258       95.41574
O         63.85270       24.96322       95.58213
H         60.27486       26.98243       96.58312
H         63.03463       26.59110       97.34810
H         62.39600       27.57734       95.98944
N         62.09521       25.46844       94.26968
C         62.51646       24.69678       93.10308
C         62.71008       23.21230       93.37312
O         62.46109       22.73084       94.47002
C         61.50304       24.90352       91.93381
C         60.13095       24.27417       92.21930
O         61.33333       26.27334       91.67795
H         61.23110       26.02655       94.20216
H         63.49946       25.10204       92.77498
H         61.87306       24.41980       91.00308
H         62.18020       26.59506       91.27147
H         59.66302       24.71186       93.12462
H         59.45504       24.44543       91.35534
H         60.22363       23.17596       92.36234
N         63.13742       22.42310       92.34956
C         63.34548       20.98690       92.44416
C         64.58131       20.75276       93.29034
O         64.49005       20.01565       94.26236
C         63.37163       20.35921       91.01626
C         62.01129       20.67725       90.31205
C         63.59044       18.83690       91.09572
C         61.90608       20.21210       88.86218
H         63.33621       22.87336       91.44473
H         62.47140       20.51813       92.94766
H         64.20563       20.80818       90.43266
H         61.84175       21.77283       90.28250
H         61.17347       20.23164       90.89191
H         64.55313       18.60402       91.59455
H         62.76718       18.35238       91.66284
H         63.63463       18.38739       90.08308
H         60.92615       20.54053       88.45134
H         62.71332       20.66941       88.25293
H         61.94845       19.10847       88.78374
N         65.72256       21.47570       93.06904
C         66.80370       21.52986       94.05098
C         68.18016       21.46897       93.40183
O         68.30106       21.67488       92.20196
C         66.59980       22.83644       94.87056
C         67.52393       22.99972       96.07894
O         66.73388       23.95120       94.02327
H         65.73084       22.15752       92.29416
H         66.71963       20.66311       94.74163
H         65.55816       22.78668       95.27028
H         66.15366       24.66997       94.38578
H         67.43041       22.12293       96.75396
H         68.57779       23.13263       95.76739
H         67.23093       23.90920       96.64570
N         69.27451       21.21626       94.17723
C         70.65323       21.27015       93.70884
C         71.33947       19.92509       93.90730
O         71.80447       19.35458       92.93026
C         71.38014       22.42708       94.45021
C         72.85198       22.55880       94.05088
O         71.29487       22.25917       95.84333
H         69.12338       21.00520       95.17432
H         70.68762       21.51299       92.62225
H         70.85147       23.36659       94.15848
H         71.27779       23.16453       96.25055
H         73.42035       21.65020       94.34355
H         72.94552       22.71471       92.95644
H         73.30059       23.43024       94.57438
N         71.46480       19.37709       95.14975
C         72.18245       18.14189       95.43522
C         71.24100       17.15929       96.09769
O         70.62891       17.50326       97.10064
C         73.35705       18.45854       96.38768
C         74.20602       17.23334       96.79048
C         75.04385       16.65844       95.63747
C         75.89591       15.47582       96.12563
N         76.78481       14.99224       95.06948
H         71.05421       19.87093       95.95420
H         72.60144       17.70210       94.50526
H         72.93738       18.90006       97.31837
H         74.02113       19.22191       95.92586
H         73.55708       16.44410       97.22833
H         74.91188       17.56540       97.58260
H         75.71581       17.45857       95.25698
H         74.39314       16.31154       94.80754
H         75.22652       14.64984       96.45583
H         76.51470       15.79244       96.99475
H         77.45166       15.74918       94.79185
H         77.33476       14.17942       95.43106
H         76.23061       14.68590       94.23760
N         71.12950       15.88711       95.62949
C         70.30781       14.88523       96.29682
C         68.82665       15.24146       96.22254
O         68.23397       15.37640       97.28373
C         70.60154       13.45598       95.78379
C         72.05753       13.05048       96.08681
C         72.34007       11.64718       95.63794
O         73.21667       11.43046       94.81652
O         71.64281       10.61746       96.15493
H         71.69799       15.61243       94.81403
H         70.59467       14.86330       97.37447
H         70.40646       13.35748       94.69809
H         69.92828       12.74891       96.31771
H         72.24251       13.11065       97.18159
H         72.76300       13.74297       95.57984
N         68.12214       15.42708       95.06597
C         68.64612       15.36130       93.71729
H         69.72521       15.15371       93.66831
H         68.10825       14.57054       93.15405
H         68.47385       16.33626       93.21514
H         67.11864       15.65453       95.14760
Ca        61.57435       16.78000       99.54837
O         63.08953       18.71338       97.70423
H         62.71674       17.85616       97.38279
H         63.60058       19.06194       96.93216
O         63.03194       19.52102      101.02834
H         63.43164       19.50366      101.93407
H         62.30206       20.18691      101.09298
O         60.37593       18.29291      102.25509
H         60.40871       19.13723      102.77117
H         59.60369       17.80064      102.63121
O         62.13375       15.58739      102.36335
H         62.14861       14.59759      102.38286
H         62.74289       15.86081      103.09443
O         64.61885       16.51985      100.33392
H         64.98146       16.78160       99.45038
H         64.93105       17.22744      100.95167

Ca 1.0



