%chk=apoCaM-CA-Ng.loop2.water4.frame569.chk
%nprocshared=20
%mem=10GB
%nosave
#b3lyp/svp scf=(tight,noincore,xqc) Test 
#IOP(5/87=12) Density=Current Pop=(MK,readradii) iop(6/33=2) iop(6/42=6)

apoCaM-CA-Ng.loop2.water4.frame569 

   -2  1 
C         45.85239       21.14785       85.69989
C         44.50830       21.24465       85.04237
O         43.63862       21.93127       85.56017
H         46.63492       21.52254       85.00778
H         45.87897       21.75187       86.63238
H         46.06600       20.08897       85.95696
N         44.26157       20.56072       83.88984
C         42.96845       20.59676       83.21687
C         42.66667       22.00836       82.73976
O         43.36344       22.50515       81.86999
C         42.95784       19.60080       82.03775
C         41.63645       19.57591       81.32216
O         41.57848       19.84745       80.13354
O         40.51241       19.24436       81.98532
H         45.01702       19.97454       83.50050
H         42.19572       20.26545       83.94662
H         43.16380       18.57913       82.42525
H         43.76672       19.86481       81.31995
N         41.63613       22.71259       83.28492
C         41.29008       24.07993       82.90155
C         42.42671       25.05230       83.19878
O         43.03690       24.91706       84.25000
C         40.05772       24.54026       83.68834
H         41.07185       22.25178       84.01572
H         41.01188       24.09198       81.83068
H         39.76947       25.57038       83.38876
H         39.20111       23.86498       83.48202
H         40.26641       24.53444       84.78022
N         42.71561       26.13422       82.40959
C         41.97846       26.49138       81.19827
C         42.25643       25.53905       80.04789
O         43.16092       24.72011       80.13639
C         42.24400       27.96290       80.79181
C         43.67649       28.29870       80.46340
O         43.96469       29.44009       80.14111
O         44.64753       27.37009       80.53223
H         43.44144       26.78297       82.75321
H         40.89504       26.43807       81.43794
H         41.92662       28.61671       81.63306
H         41.61518       28.21951       79.91257
N         41.47382       25.58183       78.93239
C         41.63225       24.67990       77.80269
C         41.39864       23.22680       78.17823
O         41.12150       22.94191       79.33386
H         40.71801       26.28140       78.87980
H         42.65267       24.79410       77.38108
H         40.89104       24.96093       77.02388
N         41.49322       22.21779       77.26619
C         41.76739       22.39646       75.84548
C         43.09706       21.76768       75.44070
O         43.43511       21.85993       74.26914
C         40.60506       21.77118       75.03879
C         39.27897       22.43047       75.33805
N         39.06326       23.72869       75.02115
O         38.38458       21.77930       75.85748
H         41.34205       21.25224       77.60137
H         41.84547       23.46802       75.57562
H         40.54174       20.68827       75.29074
H         40.79112       21.85647       73.94673
H         39.79679       24.28933       74.56454
H         38.15358       24.17191       75.21937
N         43.90408       21.10580       76.32748
C         45.13588       20.44950       75.91465
C         46.26787       21.38895       75.52812
O         47.23446       20.88880       74.97050
H         43.61417       20.98659       77.30719
H         44.89373       19.78890       75.05162
H         45.50999       19.79442       76.73002
N         46.25304       22.73174       75.79605
C         47.30245       23.65040       75.33583
C         48.07899       24.29422       76.49456
O         47.49895       24.96280       77.33600
C         46.68998       24.70709       74.39314
C         46.21970       24.04395       73.08761
O         45.61802       25.35384       75.03015
H         45.45787       23.12889       76.31823
H         48.05058       23.09906       74.72732
H         47.47911       25.44972       74.13675
H         45.27332       26.04080       74.40241
H         45.43927       23.28111       73.28300
H         45.80769       24.80702       72.39543
H         47.07920       23.55215       72.58188
N         49.43206       24.10016       76.56827
C         50.33988       24.58596       77.61784
C         50.57191       26.09514       77.54495
O         51.04381       26.57410       76.52305
C         51.71982       23.85154       77.47004
C         52.81930       24.42523       78.41059
C         51.53102       22.33737       77.71778
C         54.20244       23.81556       78.16189
H         49.84915       23.51370       75.83087
H         49.92981       24.31463       78.61291
H         52.07246       24.00612       76.42468
H         52.53248       24.29078       79.47444
H         52.94047       25.51284       78.22332
H         51.22394       22.15639       78.76994
H         50.75800       21.89999       77.05522
H         52.46092       21.77385       77.51065
H         54.95237       24.32244       78.80415
H         54.22718       22.73608       78.40802
H         54.49762       23.95769       77.09920
N         50.35247       26.88329       78.64151
C         50.71651       28.29880       78.73027
C         51.60951       28.62098       79.94690
O         51.95237       29.78820       80.08097
C         49.43447       29.16410       78.70688
C         48.46567       28.76311       79.77383
O         47.31745       28.15660       79.42305
O         48.76626       28.86151       80.95047
H         49.90843       26.46113       79.46443
H         51.30144       28.60298       77.83473
H         48.94533       29.00326       77.72155
H         49.67580       30.24639       78.78873
N         52.05297       27.68567       80.85438
C         52.97117       28.03936       81.94678
C         52.76861       27.14174       83.17619
O         53.66182       26.37152       83.50358
C         54.43369       28.01202       81.42896
C         55.40551       28.64737       82.40821
C         56.46004       27.90810       82.97578
C         55.27179       30.00838       82.74644
C         57.35349       28.51989       83.86579
C         56.16491       30.61315       83.63475
C         57.20510       29.87023       84.19464
H         51.81547       26.69210       80.72557
H         52.77046       29.08129       82.26622
H         54.50429       28.59410       80.48573
H         54.71916       26.96249       81.19267
H         56.59379       26.86188       82.73241
H         54.47903       30.60779       82.31832
H         58.16417       27.94937       84.30084
H         56.05131       31.66031       83.88581
H         57.89693       30.34318       84.88064
N         51.63168       27.20248       83.93939
C         51.38896       26.40072       85.13618
C         51.52257       24.90017       84.95270
O         51.70429       24.20743       85.94454
C         49.92645       26.71364       85.47318
C         49.81104       28.15594       85.04991
C         50.56709       28.15681       83.72300
H         52.09476       26.75510       85.92108
H         49.26408       26.13535       84.78899
H         49.62908       26.49004       86.51972
H         48.77961       28.56337       84.99246
H         50.39111       28.75395       85.79034
H         49.96156       27.80032       82.87142
H         50.92791       29.19228       83.54673
N         51.36687       24.31957       83.72938
C         51.46264       22.88137       83.52463
C         52.88441       22.44990       83.81133
O         53.09132       21.63298       84.69767
C         51.06950       22.41837       82.09248
C         49.56706       22.51822       81.73494
C         49.06252       23.86566       81.30463
O         47.77988       24.00512       80.93379
O         49.80564       24.82022       81.19613
H         51.18476       24.93078       82.93486
H         50.76817       22.36413       84.22582
H         51.28711       21.32692       82.07246
H         51.69461       22.88802       81.30384
H         48.95743       22.13019       82.57882
H         49.38887       21.85924       80.85767
N         53.91669       22.98044       83.09624
C         55.30492       22.63328       83.31534
H         55.86934       23.54693       83.59664
H         55.43129       21.88005       84.12095
H         55.73124       22.22077       82.37742
H         53.71467       23.67604       82.36201
Ca        47.19575       26.01439       80.10129
O         45.85089       22.78567       79.09481
H         46.33807       21.94291       79.27647
H         44.89412       22.53797       79.14944
O         44.73510       26.38551       77.79036
H         43.94926       26.97857       77.68514
H         45.43773       26.80804       77.23692
O         47.14838       26.75785       83.12023
H         47.37712       25.82375       83.35111
H         47.86087       27.02420       82.49075
O         45.36084       24.47796       82.27619
H         45.58211       23.56986       81.95370
H         45.44447       24.40924       83.25934

Ca 1.0



