%chk=apoCaM-CA-Ng.loop3.water8.frame1115.chk
%nprocshared=20
%mem=10GB
%nosave
#b3lyp/svp scf=(tight,noincore,xqc) Test 
#IOP(5/87=12) Density=Current Pop=(MK,readradii) iop(6/33=2) iop(6/42=6)

apoCaM-CA-Ng.loop3.water8.frame1115 

   0  1 
C         65.47905       91.42432       54.57345
C         65.33857       92.76034       55.24636
O         64.31301       93.39861       55.07062
H         66.45452       90.94914       54.81029
H         64.66596       90.74894       54.91319
H         65.40769       91.55166       53.47282
N         66.33755       93.24773       56.03459
C         66.27186       94.54004       56.71658
C         67.36212       95.49393       56.24565
O         67.40678       96.61147       56.74463
C         66.34341       94.34295       58.24805
C         67.65395       93.78251       58.74103
O         68.01230       92.65978       58.42512
O         68.42630       94.51477       59.56613
H         67.18522       92.67431       56.14964
H         65.30067       95.03595       56.50160
H         65.51670       93.67737       58.57686
H         66.18724       95.33233       58.73105
N         68.27127       95.13633       55.29237
C         69.36365       95.98108       54.82979
C         68.83205       97.23708       54.16030
O         69.25896       98.33565       54.48625
C         70.37605       96.25372       55.97218
C         70.88964       94.93451       56.57849
C         71.93756       95.17429       57.67455
C         72.50269       93.86270       58.25405
N         71.51167       93.11155       59.02839
H         68.21481       94.20627       54.85403
H         69.90804       95.42086       54.03980
H         69.90579       96.86177       56.77466
H         71.23497       96.82983       55.56347
H         71.34828       94.32206       55.77176
H         70.03013       94.37883       57.00365
H         71.51077       95.79107       58.49575
H         72.78306       95.73497       57.22060
H         73.35077       94.11654       58.92712
H         72.90050       93.22862       57.43064
H         70.70824       92.81775       58.43167
H         71.96289       92.24836       59.40893
H         71.17133       93.69003       59.83064
N         67.86238       97.12513       53.20637
C         67.30911       98.25997       52.47614
C         65.94945       98.67462       53.01523
O         65.37676       99.59908       52.45219
C         67.19533       97.90981       50.97697
C         68.51783       97.54878       50.36720
O         68.68928       96.33523       49.80920
O         69.43252       98.35698       50.35261
H         67.46996       96.19168       53.00998
H         67.96643       99.15164       52.58251
H         66.78444       98.77789       50.41650
H         66.49197       97.05649       50.85318
N         65.38544       98.09676       54.11808
C         64.11755       98.54493       54.67397
C         64.35323       99.14380       56.04223
O         65.22681       99.99380       56.14129
H         65.87669       97.34090       54.61617
H         63.42726       97.68800       54.68561
H         63.65611       99.33170       54.04400
N         63.65818       98.79289       57.16296
C         62.46933       97.94877       57.19742
C         62.82198       96.54518       57.66034
O         63.45290       96.41838       58.70036
C         61.43320       98.54736       58.17502
C         60.97442       99.91990       57.74827
N         61.16108      100.99403       58.55060
O         60.41793      100.06086       56.66940
H         63.93997       99.24045       58.05060
H         61.96880       97.93924       56.21326
H         61.86925       98.59027       59.19805
H         60.54008       97.88537       58.21760
H         61.62489      100.89870       59.46572
H         60.83944      101.92793       58.25569
N         62.40376       95.42213       57.00358
C         61.60067       95.44970       55.79054
C         61.04307       94.09074       55.46604
O         60.27082       93.58233       56.26812
H         62.63514       94.50684       57.42226
H         62.20803       95.84048       54.95171
H         60.71499       96.10531       55.93907
N         61.36777       93.43684       54.31142
C         60.75311       92.15668       53.97393
C         61.52504       91.38102       52.90684
O         62.20356       91.95958       52.06975
C         59.28745       92.39075       53.53583
C         58.56171       91.11276       53.19770
C         58.13091       90.87618       51.88202
C         58.31650       90.14534       54.18613
C         57.48112       89.68392       51.55586
C         57.66262       88.95398       53.85807
C         57.24845       88.71724       52.53877
O         56.63180       87.56649       52.20383
H         62.06397       93.85748       53.67778
H         60.79348       91.52538       54.88981
H         59.30819       93.06229       52.64907
H         58.71666       92.91505       54.33134
H         58.30836       91.60880       51.10440
H         58.63806       90.31067       55.20690
H         57.16386       89.51020       50.53549
H         57.48752       88.21242       54.62702
H         56.46522       86.86563       52.84984
N         61.47861       90.01737       52.94774
C         62.21720       89.11854       52.06640
C         61.81761       89.25067       50.60500
O         60.67189       89.01002       50.25118
C         62.12486       87.63654       52.56167
C         60.67642       87.07625       52.67672
C         62.99539       86.72799       51.66856
C         60.61886       85.74508       53.43045
H         60.93524       89.60437       53.71408
H         63.29092       89.39240       52.16347
H         62.56342       87.64090       53.58419
H         60.20623       86.96171       51.67799
H         60.04289       87.76065       53.26469
H         64.02496       87.13490       51.58807
H         63.07661       85.70572       52.08491
H         62.56409       86.65404       50.64615
H         61.14935       84.93983       52.88661
H         61.06698       85.86301       54.44149
H         59.56050       85.43365       53.55533
N         62.77131       89.60051       49.69572
C         62.54833       89.67235       48.25529
C         63.72514       90.34559       47.55750
O         64.81479       90.42014       48.10846
C         62.30573       88.26747       47.66115
O         63.41653       87.44631       47.90988
H         63.70322       89.83629       50.06373
H         61.66036       90.31970       48.08121
H         62.13995       88.34297       46.56314
H         61.40100       87.81436       48.12296
H         63.17285       86.53799       47.59105
N         63.54156       90.91256       46.33558
C         64.55391       91.67868       45.62081
C         65.78470       90.84910       45.29167
O         66.89785       91.33193       45.45478
C         64.90018       92.97164       46.38535
H         62.61262       90.83449       45.89252
H         64.10497       91.98379       44.64974
H         63.97983       93.56622       46.56587
H         65.36993       92.74746       47.36640
H         65.60711       93.59592       45.79857
N         65.65047       89.58971       44.78097
C         66.75786       88.79342       44.25646
C         67.88048       88.48477       45.25084
O         68.88138       87.93183       44.81402
C         67.30979       89.48376       43.00016
H         64.70276       89.19149       44.69592
H         66.35385       87.81545       43.91201
H         68.07549       88.84560       42.51073
H         66.48370       89.63886       42.27224
H         67.76522       90.46665       43.23633
N         67.80182       88.76915       46.58669
C         68.90431       88.50089       47.51455
C         69.28184       87.02362       47.53033
O         70.43389       86.71775       47.80612
C         68.52603       88.96111       48.94499
C         69.66867       88.87507       49.97630
C         70.76208       89.86762       49.70203
O         70.48456       91.18580       49.72745
O         71.90714       89.49168       49.50810
H         66.94150       89.19024       46.96189
H         69.77970       89.09451       47.16621
H         67.68449       88.32597       49.29887
H         68.16553       90.01279       48.91700
H         70.07523       87.84339       50.02541
H         69.25977       89.11295       50.98112
N         68.35978       86.05518       47.25717
C         68.65912       84.63731       47.27904
H         69.71373       84.42786       47.55597
H         67.99937       84.13752       48.01876
H         68.46683       84.20379       46.27548
H         67.39170       86.32259       47.02729
Ca        72.12649       92.72548       49.55992
O         71.86296       95.82782       49.61115
H         71.68385       96.58111       48.99457
H         71.24928       95.97533       50.37325
O         75.30304       91.96667       49.86292
H         76.02217       91.90208       49.18552
H         75.74180       92.36946       50.65392
O         73.31941       91.66740       47.10722
H         72.75465       90.86901       46.95276
H         74.17930       91.45851       46.66412
O         74.25530       94.59893       48.23010
H         73.80341       94.86005       47.38883
H         75.01112       94.03020       47.93893
O         73.72149       94.36169       51.71701
H         73.15454       95.11169       52.02712
H         74.13308       94.00434       52.54330
O         70.53146       93.73858       51.97321
H         69.55775       93.85054       52.11287
H         70.85462       93.29621       52.79806
O         71.03421       93.97817       47.07614
H         71.05876       94.96027       46.95421
H         70.23629       93.68262       46.57065
O         73.13812       91.14100       52.09312
H         73.96058       90.59795       51.99864
H         72.42650       90.48161       52.29030

Ca 1.0



