%chk=apoCaM-CA-Ng.loop1.water1.frame824.chk
%nprocshared=20
%mem=10GB
%nosave
#b3lyp/svp scf=(tight,noincore,xqc) Test 
#IOP(5/87=12) Density=Current Pop=(MK,readradii) iop(6/33=2) iop(6/42=6)

apoCaM-CA-Ng.loop1.water1.frame824 

   0  1 
C         28.78506       86.13107       80.13192
C         28.99898       84.80254       79.46928
O         28.18073       83.90864       79.62967
H         27.84772       86.13343       80.72650
H         29.63926       86.35061       80.80760
H         28.72450       86.92520       79.35819
N         30.10815       84.61010       78.70765
C         30.43379       83.35790       78.03593
C         31.71307       82.78861       78.62038
O         32.67500       83.51877       78.73621
C         30.51796       83.53295       76.49763
C         31.52754       84.51502       75.94389
O         32.24390       85.32571       76.74391
O         31.67056       84.59781       74.73461
H         30.76821       85.39666       78.62669
H         29.62649       82.60899       78.19183
H         29.51526       83.82805       76.11939
H         30.75434       82.53238       76.07237
N         31.76903       81.49363       79.04294
C         32.93524       80.82949       79.64268
C         34.10063       80.71959       78.64354
O         34.34123       79.62951       78.14224
C         32.46694       79.42168       80.11641
C         33.49531       78.63910       80.95634
C         33.03838       77.19262       81.24130
C         31.71152       77.08741       82.01566
N         31.35143       75.68764       82.24507
H         30.90363       80.94012       78.94283
H         33.26197       81.38369       80.55009
H         32.17583       78.82224       79.22487
H         31.56409       79.56250       80.74762
H         33.68266       79.17889       81.91004
H         34.45900       78.56672       80.41095
H         33.83524       76.68746       81.82987
H         32.93416       76.65484       80.27346
H         30.89060       77.56288       81.43836
H         31.80692       77.61022       82.99259
H         31.23615       75.19237       81.33051
H         32.08844       75.21131       82.81347
H         30.44381       75.64708       82.76310
N         34.89370       81.79386       78.33103
C         35.99337       81.72083       77.36218
C         36.86492       83.03887       77.26518
O         36.38232       84.10851       78.03097
C         35.49333       81.31520       75.94759
C         34.49865       82.26352       75.34133
O         34.86862       83.50963       74.99616
O         33.36396       81.88389       75.09818
H         34.74776       82.66604       78.84406
H         36.62091       80.88807       77.69130
H         35.02634       80.31157       75.99262
H         36.35150       81.21728       75.25092
N         38.31790       82.92087       77.54873
C         39.00351       81.72358       77.03909
C         38.98287       80.62865       78.07814
O         38.62351       80.89386       79.21918
H         38.76565       83.76441       77.12091
H         40.06858       81.94692       76.80943
H         38.52272       81.38956       76.09663
N         39.23337       79.34036       77.71371
C         38.99236       78.21781       78.61349
C         40.20342       77.30969       78.71925
O         41.07351       77.34645       77.85980
C         37.75580       77.46411       78.08940
C         37.31105       76.34492       78.98376
O         36.93162       76.60134       80.25034
O         37.26898       75.20154       78.55947
H         39.48360       79.14361       76.73210
H         38.76271       78.59401       79.63506
H         37.97281       77.07628       77.06918
H         36.91049       78.18287       78.00843
N         40.33606       76.49315       79.80486
C         41.47083       75.61391       80.03566
C         42.76019       76.39012       80.00781
O         43.66025       76.02499       79.26489
H         39.61254       76.52469       80.53876
H         41.49153       74.80616       79.27243
H         41.35549       75.14378       81.03656
N         42.87467       77.53267       80.73734
C         44.02121       78.42944       80.64718
C         43.63009       79.65594       79.83066
O         42.47044       79.77115       79.45524
C         44.57266       78.75791       82.05932
C         43.53128       79.39645       82.99239
O         45.03969       77.58337       82.67145
H         42.05861       77.83400       81.29006
H         44.84005       77.94761       80.06853
H         45.41645       79.47860       81.95925
H         45.92598       77.37995       82.27321
H         42.71449       78.68646       83.23267
H         44.01609       79.68150       83.95012
H         43.07406       80.29892       82.54382
N         44.56665       80.57749       79.45000
C         44.25904       81.68366       78.54466
C         45.09028       81.53136       77.28410
O         44.52303       81.42304       76.20662
C         44.50020       83.10134       79.17142
C         43.70556       83.34411       80.47726
C         44.08879       84.18161       78.14709
C         44.37956       82.74579       81.71022
H         45.53981       80.45806       79.76931
H         43.18616       81.64713       78.25065
H         45.57713       83.26974       79.39088
H         42.66022       82.98309       80.36077
H         43.66603       84.43490       80.69048
H         43.01277       84.08872       77.88608
H         44.27086       85.19664       78.55934
H         44.68997       84.10492       77.21667
H         44.52118       81.66389       81.62573
H         45.37998       83.20617       81.85500
H         43.76247       82.95381       82.60929
N         46.44853       81.60254       77.35535
C         47.33493       81.63455       76.19167
C         48.71018       82.18916       76.56839
O         48.99942       82.39521       77.74015
C         47.44680       80.25072       75.48293
C         47.85441       79.11802       76.44511
O         46.26050       79.93897       74.79038
H         46.85354       81.73753       78.29211
H         46.93497       82.38571       75.47459
H         48.23813       80.31051       74.70581
H         45.68423       79.36572       75.35838
H         48.82202       79.34495       76.93736
H         47.07842       78.97369       77.22818
H         47.95706       78.16689       75.87953
N         49.59385       82.51454       75.58487
C         50.89224       83.12738       75.83474
C         50.97448       84.48461       75.14565
O         51.25120       85.47223       75.81160
C         52.02291       82.16571       75.37771
C         53.41807       82.75228       75.61693
O         51.90114       81.84018       74.01572
H         49.32314       82.33743       74.60608
H         51.04931       83.29373       76.92473
H         51.95371       81.24006       75.99940
H         51.52516       80.92340       73.95671
H         53.56822       83.67380       75.01449
H         53.55879       82.99519       76.69118
H         54.19193       82.01452       75.31591
N         50.81141       84.58318       73.79725
C         51.09620       85.78143       73.01645
C         49.92606       86.14141       72.11651
O         49.43983       85.28227       71.39400
C         52.39414       85.54619       72.20133
C         52.36470       84.31112       71.27376
C         53.71811       83.98929       70.63277
C         54.19023       85.04177       69.62491
N         55.43941       84.61375       68.99536
H         50.55432       83.73395       73.27981
H         51.32052       86.64825       73.67768
H         53.21644       85.39992       72.93662
H         52.62163       86.46242       71.61552
H         51.59698       84.42884       70.48181
H         52.11917       83.41265       71.86932
H         53.60496       83.02310       70.09404
H         54.48302       83.85152       71.42898
H         54.35097       86.01748       70.13134
H         53.41244       85.17197       68.84001
H         56.18786       84.50702       69.71837
H         55.29831       83.70187       68.50159
H         55.73815       85.33162       68.29729
N         49.46224       87.42436       72.05993
C         48.40846       87.83314       71.13622
C         47.08145       87.15746       71.46839
O         46.58312       86.45336       70.60165
C         48.29932       89.37689       71.04524
C         47.28003       89.82811       69.98522
C         47.27246       91.32377       69.84488
O         46.14943       92.02142       70.10074
O         48.27934       91.91314       69.48452
H         49.92471       88.14405       72.63675
H         48.72058       87.51172       70.11493
H         49.30157       89.76542       70.75663
H         48.02927       89.83833       72.01408
H         46.26426       89.48503       70.27815
H         47.53216       89.38313       68.99831
N         46.41381       87.28903       72.65373
C         46.85460       88.04057       73.81115
H         47.84666       88.50100       73.69213
H         46.11498       88.83842       74.03285
H         46.91604       87.35819       74.68383
H         45.50911       86.80221       72.75115
Ca        34.41519       84.97828       77.26764
O         34.37152       85.38753       80.40403
H         35.15652       84.97026       80.83984
H         33.60606       85.14312       80.98267

Ca 1.0



