%chk=apoCaM-CA-Ng.loop3.water6.frame1064.chk
%nprocshared=20
%mem=10GB
%nosave
#b3lyp/svp scf=(tight,noincore,xqc) Test 
#IOP(5/87=12) Density=Current Pop=(MK,readradii) iop(6/33=2) iop(6/42=6)

apoCaM-CA-Ng.loop3.water6.frame1064 

   0  1 
C         29.81500       85.30596       33.36397
C         30.92336       86.19387       33.84447
O         31.41328       86.00651       34.94878
H         28.91283       85.91987       33.15735
H         30.12860       84.79884       32.42666
H         29.56314       84.53606       34.12269
N         31.36846       87.19371       33.03899
C         32.45275       88.10391       33.38659
C         31.95186       89.56668       33.55122
O         33.06668       90.37067       33.80797
C         33.63794       87.91573       32.40104
C         33.28164       88.00274       30.93717
O         33.45512       87.03319       30.21619
O         32.79808       89.13586       30.40039
H         30.92177       87.28990       32.11554
H         32.86211       87.85306       34.38912
H         34.05234       86.89886       32.58183
H         34.45160       88.63685       32.63175
N         31.21154       90.10385       32.39694
C         30.45030       91.34784       32.67549
C         31.06101       92.44916       31.82649
O         30.44375       92.94193       30.89192
C         28.93542       91.16512       32.38346
C         28.26320       90.19265       33.37343
C         26.80365       89.86628       33.00939
C         25.86020       91.08031       33.02349
N         24.49428       90.67473       32.68755
H         30.59813       89.38929       31.95264
H         30.53706       91.66387       33.73969
H         28.80562       90.80165       31.34015
H         28.43403       92.15228       32.47728
H         28.31260       90.61569       34.40123
H         28.81183       89.22763       33.37711
H         26.42771       89.12351       33.74696
H         26.78157       89.39436       32.00317
H         26.19542       91.83668       32.28250
H         25.86764       91.54623       34.03372
H         24.46999       90.25557       31.72915
H         24.14114       89.97841       33.38359
H         23.87085       91.51398       32.70281
N         32.32243       92.85995       32.11669
C         33.10819       93.80682       31.34441
C         34.35743       93.12543       30.77502
O         35.18654       93.81155       30.19438
C         33.42510       95.04287       32.22052
C         34.22817       94.80004       33.47538
O         34.65923       93.69497       33.76000
O         34.47342       95.83405       34.30202
H         32.77356       92.45788       32.94112
H         32.52769       94.18390       30.47405
H         32.45405       95.49125       32.52533
H         33.96648       95.79489       31.60794
N         34.52632       91.76671       30.85396
C         35.64861       91.02622       30.29211
C         35.76639       91.16301       28.78619
O         34.99809       91.90525       28.19142
H         33.81779       91.19527       31.32839
H         35.49098       89.95355       30.51681
H         36.59063       91.36306       30.77430
N         36.72370       90.50693       28.06611
C         37.66205       89.52383       28.60459
C         36.93793       88.20370       28.85833
O         36.33385       87.69391       27.92484
C         38.80107       89.28523       27.58080
C         39.85150       88.31126       28.07535
N         41.13235       88.70769       28.25993
O         39.54729       87.14838       28.29687
H         36.78278       90.72653       27.05857
H         38.15108       89.94077       29.50886
H         39.28169       90.26637       27.37472
H         38.38893       88.90485       26.62034
H         41.41965       89.67968       28.07696
H         41.84276       88.03716       28.59000
N         36.98325       87.53589       30.04618
C         37.67722       88.03457       31.22244
C         37.67179       87.06178       32.37604
O         37.26675       85.91504       32.22508
H         36.50039       86.62447       30.08956
H         37.18131       88.96446       31.55833
H         38.73980       88.25430       30.98393
N         38.11319       87.47959       33.59329
C         38.14933       86.59789       34.75399
C         38.07772       87.38969       36.05689
O         38.23318       88.60469       36.04904
C         39.43985       85.74846       34.66580
C         39.57368       84.66989       35.70927
C         40.60938       84.72275       36.65765
C         38.68525       83.58262       35.72229
C         40.75125       83.70553       37.60542
C         38.83294       82.56284       36.66740
C         39.86803       82.62127       37.61238
O         40.02639       81.64214       38.52549
H         38.39638       88.46733       33.68598
H         37.23320       85.96537       34.72926
H         40.30207       86.44981       34.72556
H         39.49697       85.24981       33.67380
H         41.30915       85.54926       36.66409
H         37.88809       83.51870       34.99231
H         41.55340       83.75723       38.33095
H         38.14651       81.72578       36.66047
H         39.44473       80.86929       38.55737
N         37.77890       86.75455       37.22381
C         37.64986       87.45442       38.50364
C         38.94612       88.12741       38.93191
O         39.98470       87.91878       38.32038
C         37.11816       86.51657       39.64076
C         35.60641       86.25210       39.44968
C         37.93880       85.21291       39.77929
C         34.97345       85.48556       40.61280
H         37.58191       85.74771       37.17261
H         36.92032       88.28213       38.37080
H         37.20603       87.06290       40.60358
H         35.41318       85.71270       38.49870
H         35.09164       87.23818       39.40146
H         39.02037       85.43790       39.87882
H         37.63278       84.64976       40.68352
H         37.79411       84.53213       38.91612
H         33.87540       85.42491       40.46112
H         35.36808       84.45148       40.67201
H         35.16617       86.01099       41.57333
N         38.92330       88.97890       40.00069
C         40.09188       89.67113       40.52617
C         39.89259       91.18505       40.50875
O         38.84671       91.66541       40.09550
C         40.36856       89.15179       41.94685
O         39.27763       89.41682       42.78645
H         38.02644       89.13959       40.48405
H         40.98800       89.44635       39.90730
H         41.28262       89.62172       42.36743
H         40.53968       88.05222       41.87977
H         39.41406       88.86450       43.59964
N         40.89955       91.99535       40.94264
C         40.89334       93.45400       40.93246
C         39.80831       94.06620       41.80764
O         39.13304       94.98827       41.36905
C         40.86277       93.98833       39.49158
H         41.76307       91.55116       41.28805
H         41.86016       93.78067       41.37646
H         39.91149       93.72172       38.98523
H         40.96571       95.09483       39.48851
H         41.70802       93.56069       38.91249
N         39.62094       93.63048       43.08738
C         38.74393       94.28654       44.05384
C         37.34087       94.51916       43.50869
O         36.90859       95.66187       43.42382
C         39.40291       95.58849       44.53601
H         40.15772       92.81278       43.41454
H         38.66292       93.63926       44.95569
H         38.78238       96.05989       45.32894
H         40.39974       95.36261       44.97257
H         39.53431       96.30987       43.70299
N         36.56098       93.46498       43.14558
C         35.19349       93.61353       42.65959
C         34.24466       93.03641       43.68688
O         33.40062       93.76842       44.18685
C         35.04027       92.93393       41.28195
C         33.59667       93.01848       40.75397
C         33.45912       92.34489       39.42086
O         33.05375       92.97219       38.45659
O         33.74930       91.03609       39.28968
H         36.94285       92.51312       43.25535
H         34.93212       94.68882       42.52893
H         35.33778       91.86569       41.35830
H         35.72500       93.43255       40.55986
H         33.29111       94.08516       40.67201
H         32.90551       92.50800       41.45751
N         34.32148       91.72962       44.05529
C         33.42138       91.15970       45.03188
H         32.37382       91.24022       44.67099
H         33.66504       90.08841       45.18985
H         33.52274       91.69689       45.99905
H         35.03774       91.11962       43.63458
Ca        33.20016       90.88884       36.01946
O         35.40669       93.84675       36.92968
H         35.89531       94.22431       36.15667
H         34.80468       94.57621       37.22244
O         36.09860       90.98425       34.42111
H         36.57769       91.79775       34.12393
H         36.80117       90.28946       34.46846
O         31.34130       93.09054       35.96497
H         31.83652       93.34852       35.14730
H         30.51754       93.63754       35.94321
O         34.77483       88.37809       36.18788
H         34.85601       87.53641       36.70142
H         35.53838       88.93093       36.48751
O         31.44932       88.96166       37.18258
H         31.00676       88.89546       36.29922
H         31.96046       88.11844       37.26931
O         36.60021       91.18764       37.75521
H         36.54009       90.78285       38.65665
H         37.56580       91.16922       37.53744

Ca 1.0



