%chk=apoCaM-CA-Ng.loop1.water3.frame1414.chk
%nprocshared=20
%mem=10GB
%nosave
#b3lyp/svp scf=(tight,noincore,xqc) Test 
#IOP(5/87=12) Density=Current Pop=(MK,readradii) iop(6/33=2) iop(6/42=6)

apoCaM-CA-Ng.loop1.water3.frame1414 

   0  1 
C         66.65997       84.94452       13.54651
C         67.45985       85.47229       12.39119
O         68.01227       84.66723       11.66037
H         65.85539       84.27846       13.17041
H         67.32620       84.36318       14.21912
H         66.19812       85.76519       14.13365
N         67.53875       86.81491       12.15420
C         68.31894       87.43257       11.07997
C         69.80779       87.42693       11.43643
O         70.35427       88.46066       11.79821
C         67.79923       88.87286       10.84135
C         68.43967       89.57163        9.66497
O         68.05371       90.82310        9.35443
O         69.29094       89.02212        8.98205
H         66.98352       87.43607       12.76305
H         68.13903       86.89215       10.12256
H         67.95218       89.48536       11.75625
H         66.70751       88.82294       10.63705
N         70.52354       86.27699       11.34084
C         71.92498       86.13491       11.72406
C         72.81240       85.85092       10.51051
O         73.72634       86.63998       10.31325
C         72.08488       85.10751       12.86770
C         71.26933       85.54915       14.09741
C         71.46120       84.61717       15.29769
C         70.61695       85.10358       16.48667
N         70.79887       84.24318       17.65437
H         70.02947       85.46549       10.98227
H         72.29573       87.09485       12.15167
H         73.16016       85.05859       13.14880
H         71.76581       84.09126       12.56631
H         70.18991       85.57326       13.83237
H         71.58536       86.57411       14.39349
H         72.53499       84.60614       15.58701
H         71.15166       83.58527       15.02311
H         69.54140       85.10834       16.19918
H         70.91106       86.14375       16.75300
H         70.51377       83.26291       17.42803
H         71.79874       84.26108       17.96066
H         70.20045       84.59826       18.43526
N         72.64320       84.84128        9.59895
C         71.58237       83.83873        9.58045
C         70.52883       84.22114        8.54877
O         70.77177       85.09907        7.73016
C         72.15641       82.42857        9.34836
C         73.00419       82.34369        8.11081
O         72.53866       82.61838        7.01831
O         74.29675       81.98143        8.21307
H         73.28062       84.85288        8.78649
H         71.07788       83.78307       10.55055
H         71.32785       81.69100        9.28274
H         72.79057       82.15421       10.21906
N         69.28133       83.67206        8.60699
C         68.20197       84.09941        7.72740
C         68.33943       83.52716        6.34164
O         69.21268       82.71033        6.12661
H         69.06441       82.99797        9.35698
H         68.15552       85.20943        7.70879
H         67.23388       83.72336        8.12323
N         67.46653       83.89240        5.35961
C         67.40633       83.27212        4.02965
C         65.96710       82.74004        3.82588
O         65.18189       82.91329        4.74965
C         67.78258       84.31616        2.96177
C         69.01227       85.14642        3.25016
O         68.89162       86.37189        3.22274
O         70.24677       84.65591        3.49656
H         66.78069       84.63284        5.57673
H         68.13408       82.43795        3.96051
H         66.92616       85.01804        2.83768
H         67.94867       83.80519        1.99499
N         65.46171       82.11138        2.71634
C         66.11473       81.73755        1.47429
C         67.12970       80.65133        1.67860
O         66.83308       79.68035        2.35941
H         64.45991       81.86070        2.75698
H         66.50640       82.61562        0.92579
H         65.33719       81.29526        0.81238
N         68.33692       80.71538        1.05752
C         69.37647       79.70807        1.24484
C         69.82387       79.77262        2.68656
O         70.12720       80.86522        3.10657
C         70.55675       79.98408        0.27538
C         71.61220       78.87753        0.33598
O         71.16670       81.22044        0.55794
H         68.51658       81.51564        0.43170
H         68.97166       78.70217        0.99290
H         70.16631       79.97995       -0.77099
H         70.76775       81.90058       -0.04456
H         71.15600       77.90166        0.06506
H         72.42654       79.09655       -0.38721
H         72.05038       78.79653        1.35235
N         69.87067       78.69779        3.51554
C         70.21885       78.77627        4.94105
C         71.64211       79.32806        5.20825
O         71.93783       80.71868        5.22527
C         69.13659       79.50820        5.78065
C         67.79057       78.75011        5.68040
C         69.58064       79.63834        7.25922
C         66.63197       79.46249        6.38014
H         69.63702       77.77098        3.12669
H         70.23961       77.73307        5.33139
H         69.00208       80.51593        5.35906
H         67.89931       77.72870        6.10772
H         67.51154       78.64502        4.61306
H         70.52318       80.21424        7.34856
H         68.84393       80.20114        7.86339
H         69.73745       78.63560        7.71162
H         65.69851       78.88341        6.22298
H         66.79419       79.53205        7.47429
H         66.49875       80.48133        5.95953
N         72.74119       78.49259        4.72803
C         74.02907       78.82261        5.37720
C         75.17365       78.12786        4.67622
O         76.30922       78.44696        5.00122
C         74.08369       78.52940        6.91194
C         73.97903       77.04042        7.26744
O         73.07879       79.24133        7.58413
H         72.50271       77.49380        4.92397
H         74.21774       79.90965        5.23622
H         75.07942       78.89051        7.26811
H         73.40015       79.40035        8.51057
H         74.79701       76.46352        6.78650
H         74.07990       76.91663        8.36706
H         73.00122       76.61912        6.96014
N         74.97707       77.16533        3.72108
C         76.09209       76.55629        3.01544
C         76.69755       77.65620        2.15964
O         76.07941       78.05233        1.18262
C         75.61153       75.32861        2.19949
C         76.77441       74.55139        1.58320
O         74.90821       74.46220        3.05698
H         74.02558       76.85499        3.48232
H         76.81066       76.18747        3.78295
H         74.93117       75.69104        1.39139
H         74.19934       74.02262        2.51722
H         76.37681       73.68270        1.01474
H         77.36056       75.19185        0.89387
H         77.44060       74.16547        2.38550
N         77.80777       78.31541        2.59844
C         78.32023       79.57282        2.05762
C         77.28476       80.69216        2.12761
O         76.31164       80.65991        1.38825
C         78.83632       79.45676        0.61710
C         79.97986       78.45272        0.47272
C         80.51411       78.49783       -0.96190
C         81.66275       77.50932       -1.16891
N         82.16770       77.59246       -2.53887
H         78.27988       77.95813        3.44334
H         79.18478       79.86825        2.69410
H         79.21338       80.46116        0.31779
H         78.01042       79.18001       -0.07316
H         79.61397       77.43101        0.71529
H         80.79984       78.71954        1.17570
H         80.88018       79.52637       -1.17917
H         79.69160       78.25576       -1.67037
H         81.30156       76.47625       -0.96883
H         82.48761       77.74084       -0.45862
H         81.40317       77.37200       -3.21807
H         82.53680       78.55337       -2.72669
H         82.94215       76.90179       -2.66233
N         77.46067       81.74322        2.97730
C         76.60430       82.92574        2.98595
C         75.68612       82.99325        4.20546
O         74.49374       83.15081        3.98387
C         77.45362       84.20590        2.84664
C         78.26347       84.22844        1.54260
C         79.09952       85.47373        1.46324
O         80.04252       85.71378        2.39529
O         78.93710       86.26832        0.55128
H         78.27739       81.73206        3.60183
H         75.92800       82.91559        2.09948
H         78.15266       84.29675        3.69777
H         76.77826       85.09083        2.85744
H         77.56675       84.18299        0.67642
H         78.94366       83.35153        1.49526
N         76.07898       82.91755        5.51072
C         77.41357       82.64449        5.99255
H         78.13276       83.41159        5.65787
H         77.41125       82.65116        7.10315
H         77.72853       81.62819        5.68550
H         75.34992       83.03552        6.22819
Ca        71.14559       82.72334        4.31797
O         73.33554       80.93015        2.46314
H         74.10539       80.65812        3.01994
H         73.63158       80.75040        1.53640
O         72.67407       83.97798        1.59628
H         73.33488       84.70897        1.69251
H         72.29974       84.09967        0.68792
O         72.71365       85.72170        4.81171
H         71.90331       86.29047        4.83364
H         73.15496       85.95334        3.95611

Ca 1.0



