%chk=apoCaM-CA-Ng.loop2.water3.frame419.chk
%nprocshared=20
%mem=10GB
%nosave
#b3lyp/svp scf=(tight,noincore,xqc) Test 
#IOP(5/87=12) Density=Current Pop=(MK,readradii) iop(6/33=2) iop(6/42=6)

apoCaM-CA-Ng.loop2.water3.frame419 

   -2  1 
C         97.84194      103.89403       69.24281
C         98.06770      104.57078       67.92484
O         98.85847      104.07966       67.13385
H         96.77324      103.61517       69.34668
H         98.46325      102.97574       69.32472
H         98.12519      104.58557       70.06334
N         97.38674      105.70842       67.60995
C         97.61057      106.43576       66.36556
C         98.98988      107.07092       66.41107
O         99.24199      107.87619       67.29775
C         96.51733      107.50246       66.16575
C         96.64733      108.19900       64.83975
O         96.58350      107.56083       63.80055
O         96.81661      109.53357       64.79172
H         96.68307      106.05786       68.27913
H         97.52352      105.71600       65.51997
H         96.55717      108.24637       66.99117
H         95.52246      107.00664       66.19495
N         99.95082      106.71370       65.51441
C        101.33287      107.18016       65.60475
C        101.92298      106.77281       66.94090
O        102.55499      107.58859       67.59544
C        102.17374      106.57547       64.47439
H         99.70407      106.03568       64.77652
H        101.37573      108.28685       65.49277
H        103.22168      106.94086       64.54203
H        102.17874      105.46576       64.52989
H        101.76196      106.88452       63.49017
N        101.68981      105.51732       67.41776
C        102.15837      104.98252       68.68657
C        103.65695      104.76649       68.61314
O        104.40925      105.23096       69.45823
C        101.65061      105.82895       69.87975
C        101.93197      105.17015       71.19831
O        102.68350      105.80048       72.12111
O        101.46630      104.06883       71.44535
H        101.12602      104.88116       66.83846
H        101.70858      103.96851       68.79177
H        100.54847      105.95454       69.79406
H        102.11186      106.83792       69.87254
N        104.14376      104.03819       67.56901
C        105.54328      103.72431       67.34574
C        106.06311      102.57967       68.19712
O        107.16079      102.11825       67.91937
H        103.47802      103.71653       66.84880
H        106.17401      104.63569       67.42334
H        105.62158      103.35916       66.29821
N        105.34465      102.04499       69.22482
C        105.76428      100.85591       69.96128
C        105.51962       99.64012       69.08209
O        104.43827       99.55757       68.51400
C        104.96611      100.77942       71.28438
C        105.47137       99.71169       72.22739
N        105.30210       98.40075       71.95575
O        106.02449      100.04162       73.26578
H        104.44796      102.47439       69.48989
H        106.83331      100.95061       70.25888
H        103.87840      100.64856       71.09769
H        105.10442      101.75820       71.79546
H        104.80143       98.10852       71.11033
H        105.64755       97.67788       72.60439
N        106.43898       98.63610       68.95145
C        106.19462       97.47178       68.10215
C        105.85090       96.24154       68.90725
O        105.95014       96.25721       70.12489
H        107.30827       98.67121       69.50576
H        107.06391       97.28882       67.43517
H        105.31828       97.65396       67.44643
N        105.37306       95.13023       68.27587
C        104.90201       93.96442       69.02241
C        103.65206       94.28492       69.85319
O        103.31497       93.48180       70.71189
C        104.64393       92.73982       68.09989
C        103.44532       92.90832       67.15094
O        105.80983       92.40775       67.38537
H        105.33207       95.13431       67.24653
H        105.72369       93.67349       69.71538
H        104.40176       91.86618       68.74430
H        105.88996       93.02343       66.61111
H        103.33095       92.00333       66.51881
H        102.51870       93.00990       67.74254
H        103.56219       93.79350       66.49178
N        102.90799       95.41764       69.64070
C        101.72421       95.78405       70.41757
C        101.98771       97.11045       71.09951
O        102.39364       98.05580       70.43619
C        100.44943       95.91370       69.52813
C        100.16270       94.66299       68.66576
C         99.21329       96.25754       70.39068
C         99.96730       93.35673       69.44347
H        103.18162       96.06693       68.88920
H        101.50791       95.01449       71.19042
H        100.59927       96.75317       68.81254
H        100.99463       94.53947       67.94968
H         99.24867       94.84819       68.06027
H         99.02387       95.47407       71.15440
H         99.35027       97.22108       70.92300
H         98.31063       96.36167       69.75287
H         99.10447       93.42306       70.13626
H         99.76910       92.53250       68.72684
H        100.87521       93.09179       70.01774
N        101.68659       97.26941       72.41507
C        101.86680       98.52221       73.13458
C        102.44208       98.22183       74.50323
O        103.50444       98.73426       74.82376
C        100.52877       99.28005       73.21252
C        100.66174      100.67781       73.76948
O         99.67898      101.39906       73.81454
O        101.85120      101.16245       74.18022
H        101.22676       96.48260       72.89587
H        102.56224       99.18443       72.57275
H         99.78901       98.70348       73.80525
H        100.13631       99.38638       72.17741
N        101.80518       97.34719       75.34167
C        102.33405       96.94954       76.63654
C        101.24238       97.08565       77.69558
O        100.18517       96.50157       77.50294
C        102.79336       95.47896       76.57773
C        103.65481       95.16910       77.77601
C        104.96185       95.68707       77.83314
C        103.17480       94.39404       78.84248
C        105.77554       95.43374       78.93812
C        103.98954       94.15438       79.95542
C        105.28841       94.67177       80.00175
H        100.93366       96.89612       75.02785
H        103.22354       97.56706       76.87031
H        103.40391       95.28499       75.66816
H        101.90373       94.81337       76.51603
H        105.35088       96.28350       77.01613
H        102.16832       93.99608       78.82278
H        106.78158       95.83249       78.96956
H        103.61388       93.57032       80.78484
H        105.91815       94.48422       80.86149
N        101.40797       97.80394       78.84723
C        100.38194       97.95885       79.87260
C         99.04587       98.42100       79.32744
O         98.02139       97.85217       79.67843
C        100.96606       99.04448       80.78666
C        102.44144       98.74040       80.71673
C        102.63320       98.47465       79.22653
H        100.27307       96.99774       80.42477
H        100.83674      100.04964       80.32334
H        100.52481       99.06892       81.80577
H        103.11456       99.51563       81.13840
H        102.60400       97.78511       81.26830
H        102.72645       99.40723       78.62797
H        103.53617       97.83888       79.11339
N         98.99993       99.45979       78.45114
C         97.76857      100.03449       77.92264
C         96.95105       98.98721       77.19025
O         95.80867       98.76156       77.56536
C         98.09135      101.19117       76.95603
C         98.84904      102.35866       77.61388
C         99.27931      103.31427       76.54507
O        100.59014      103.45744       76.27756
O         98.45226      103.89384       75.85950
H         99.90216       99.85427       78.14857
H         97.16521      100.44225       78.76482
H         97.14875      101.58577       76.51530
H         98.71685      100.78399       76.13353
H         99.76731      101.99770       78.11863
H         98.21966      102.86730       78.37500
N         97.47013       98.30945       76.12951
C         96.70258       97.32499       75.39856
H         95.80241       97.80128       74.95375
H         97.31803       96.89598       74.57952
H         96.38918       96.50482       76.07866
H         98.43807       98.49497       75.82922
Ca       101.21160      104.46237       74.36462
O         98.66646      105.05452       72.87418
H         98.24366      105.93652       73.02711
H         97.91527      104.40990       72.89376
O        103.93855      104.32073       75.44607
H        104.36930      103.43385       75.35735
H        104.33727      104.86609       74.72206
O        101.32311      107.00952       75.72060
H        102.17460      106.70838       76.12673
H        100.62295      106.52251       76.22427

Ca 1.0



