%chk=apoCaM-CA-Ng.loop1.water1.frame822.chk
%nprocshared=20
%mem=10GB
%nosave
#b3lyp/svp scf=(tight,noincore,xqc) Test 
#IOP(5/87=12) Density=Current Pop=(MK,readradii) iop(6/33=2) iop(6/42=6)

apoCaM-CA-Ng.loop1.water1.frame822 

   0  1 
C         22.22274       77.34626       63.39891
C         23.01192       76.15125       62.96096
O         22.46936       75.05607       62.92809
H         21.18067       77.05566       63.64944
H         22.69532       77.79116       64.30054
H         22.20482       78.10019       62.58525
N         24.32356       76.29360       62.62866
C         25.17994       75.17193       62.25157
C         26.21094       74.92712       63.33479
O         26.28666       75.71459       64.27018
C         25.74165       75.36392       60.82246
C         26.53421       76.62056       60.55935
O         26.81228       77.50682       61.53409
O         26.92603       76.84464       59.42466
H         24.73460       77.23635       62.69663
H         24.58293       74.23612       62.22605
H         24.86923       75.38324       60.13349
H         26.36983       74.48973       60.54800
N         26.98852       73.80238       63.31891
C         27.83750       73.42948       64.44610
C         29.28663       73.64712       64.06631
O         30.10864       72.75692       64.23997
C         27.52694       71.96269       64.85049
C         28.00461       71.56280       66.26107
C         27.83818       70.04374       66.46535
C         28.02221       69.57405       67.91994
N         29.32654       69.92889       68.47843
H         26.94110       73.16552       62.50914
H         27.61539       74.09243       65.31144
H         27.96556       71.29269       64.07734
H         26.42599       71.80349       64.84119
H         27.38647       72.11909       67.00029
H         29.07040       71.82725       66.41851
H         28.56392       69.51659       65.80647
H         26.81374       69.73612       66.16158
H         27.90723       68.46631       67.93922
H         27.21910       70.00829       68.55514
H         30.09624       69.56047       67.87488
H         29.40738       70.96598       68.57751
H         29.40897       69.50497       69.43135
N         29.66341       74.84375       63.52779
C         31.03517       75.17547       63.19027
C         31.56889       76.27110       64.18067
O         30.74179       77.36441       64.47815
C         31.27944       75.33116       61.64965
C         30.14926       75.69382       60.69658
O         29.55066       76.89425       60.71829
O         29.82683       74.89922       59.82624
H         28.94932       75.57056       63.37456
H         31.67370       74.31202       63.43151
H         31.59300       74.31815       61.30190
H         32.15651       75.98539       61.47138
N         32.98481       76.67766       64.09884
C         33.96141       75.58949       63.89814
C         33.75642       74.36256       64.77046
O         32.87248       74.33574       65.61647
H         33.21724       77.16174       64.99694
H         34.98952       75.98568       64.04208
H         33.89284       75.26078       62.84106
N         34.51989       73.26099       64.53970
C         34.23181       71.95350       65.11250
C         35.28987       71.58595       66.12481
O         36.04265       70.63994       65.93739
C         34.08016       70.93778       63.96181
C         33.71958       69.56720       64.46474
O         34.44886       68.61672       64.23096
O         32.59135       69.38196       65.17670
H         35.29660       73.33150       63.86321
H         33.26423       71.96399       65.66318
H         35.02519       70.89235       63.37584
H         33.26922       71.28060       63.28230
N         35.34744       72.30121       67.27649
C         36.25386       72.01915       68.36685
C         37.09079       73.23497       68.59718
O         37.90281       73.56181       67.74189
H         34.68511       73.08260       67.40757
H         36.91106       71.14472       68.17309
H         35.63896       71.78892       69.26323
N         36.90659       73.99424       69.71238
C         37.64391       75.23086       69.94368
C         37.43560       76.23228       68.81090
O         36.60082       76.02230       67.94180
C         37.27914       75.86019       71.32014
C         35.79440       76.23602       71.45586
O         37.60754       74.96753       72.35266
H         36.21307       73.67944       70.40636
H         38.72642       74.97500       69.95690
H         37.85469       76.80472       71.45940
H         38.58341       75.05883       72.51251
H         35.62505       76.72491       72.43911
H         35.48002       76.93901       70.66056
H         35.13692       75.34506       71.40681
N         38.20622       77.35257       68.77020
C         38.11460       78.37261       67.73022
C         39.45839       78.51048       67.02881
O         39.48753       78.48962       65.80407
C         37.66080       79.72851       68.34320
C         36.34546       79.52982       69.14102
C         37.47619       80.77533       67.22278
C         35.81866       80.79260       69.81898
H         38.88375       77.49271       69.53107
H         37.34711       78.09507       66.97180
H         38.44386       80.09066       69.04571
H         36.53983       78.80377       69.95435
H         35.55205       79.11662       68.47968
H         36.68189       80.45157       66.51507
H         37.20530       81.76617       67.63691
H         38.41752       80.92165       66.65412
H         35.50841       81.55141       69.07342
H         34.92384       80.53227       70.42344
H         36.59178       81.21852       70.49225
N         40.61567       78.63955       67.74208
C         41.92779       78.85627       67.13900
C         42.70805       79.87858       67.95584
O         42.30179       80.21113       69.06506
C         42.71751       77.52300       67.05779
C         42.01909       76.50376       66.15224
O         44.00479       77.75421       66.54482
H         40.57183       78.56607       68.76860
H         41.80064       79.26905       66.11234
H         42.79229       77.10808       68.09157
H         44.59430       77.03900       66.90136
H         41.93133       76.90816       65.12021
H         42.61481       75.56750       66.11276
H         41.00931       76.25185       66.53445
N         43.83638       80.44574       67.45061
C         44.63755       81.41382       68.18246
C         44.28160       82.79555       67.67896
O         43.78125       83.58238       68.46910
C         46.13593       81.03243       68.10390
C         47.02713       81.98282       68.90382
O         46.57321       81.00404       66.76768
H         44.10191       80.23204       66.47596
H         44.36497       81.39326       69.26376
H         46.23172       80.01738       68.56323
H         47.04923       80.14438       66.62472
H         46.71403       82.00119       69.96924
H         48.08091       81.63359       68.85404
H         46.97577       83.01133       68.48853
N         44.45479       83.14658       66.37145
C         43.93798       84.40123       65.82975
C         43.15801       84.16153       64.54507
O         43.11598       83.04171       64.05688
C         45.04597       85.46850       65.67104
C         46.02077       85.33244       64.48832
C         47.03217       84.18671       64.58728
C         47.99138       84.23912       63.38883
N         49.01786       83.20378       63.48481
H         44.89040       82.47077       65.73424
H         43.22069       84.83582       66.55969
H         45.60521       85.57131       66.62689
H         44.52689       86.43780       65.50841
H         46.60529       86.27882       64.45971
H         45.44861       85.26293       63.53813
H         46.52556       83.20616       64.57672
H         47.60983       84.29245       65.53160
H         48.48734       85.23469       63.34818
H         47.41153       84.09955       62.44850
H         49.59842       83.35744       64.34117
H         48.57619       82.25673       63.51923
H         49.63640       83.26145       62.64356
N         42.52160       85.19943       63.93140
C         41.80054       85.05038       62.67321
C         40.63766       84.06870       62.80561
O         40.62919       83.11089       62.04467
C         41.35274       86.41813       62.10627
C         42.55901       87.30967       61.75048
C         42.15192       88.63101       61.15534
O         40.85379       88.95194       60.98485
O         43.01332       89.42819       60.82077
H         42.56998       86.13004       64.36835
H         42.50167       84.63452       61.91275
H         40.70916       86.96076       62.82061
H         40.77342       86.23797       61.17344
H         43.19950       86.77855       61.01310
H         43.16466       87.51534       62.65783
N         39.62963       84.16838       63.72249
C         39.51329       85.19542       64.73517
H         38.61930       84.99452       65.36321
H         40.39998       85.18858       65.40040
H         39.36862       86.19034       64.28098
H         38.90261       83.43559       63.72047
Ca        29.85193       78.02270       62.55791
O         30.39645       80.51296       64.19078
H         30.42557       80.68582       63.21607
H         31.29759       80.16391       64.40689

Ca 1.0



