%chk=apoCaM-CA-Ng.loop3.water3.frame799.chk
%nprocshared=20
%mem=10GB
%nosave
#b3lyp/svp scf=(tight,noincore,xqc) Test 
#IOP(5/87=12) Density=Current Pop=(MK,readradii) iop(6/33=2) iop(6/42=6)

apoCaM-CA-Ng.loop3.water3.frame799 

   0  1 
C        -13.60671       75.29760       90.33207
C        -15.02716       75.59235       90.70464
O        -15.38728       75.46237       91.86565
H        -13.02804       74.95820       91.21640
H        -13.57481       74.51738       89.54509
H        -13.13799       76.22777       89.94147
N        -15.88676       76.04871       89.75612
C        -17.22870       76.52232       90.07913
C        -18.14173       75.39127       90.54533
O        -17.84985       74.23885       90.25661
C        -17.84052       77.20945       88.83227
C        -18.62762       78.43391       89.16858
O        -18.17184       79.59239       88.69560
O        -19.59256       78.42422       89.90825
H        -15.52248       76.15308       88.79600
H        -17.08550       77.27832       90.87881
H        -18.39770       76.48990       88.19575
H        -17.01749       77.60844       88.19878
N        -19.30365       75.66159       91.20870
C        -20.32471       74.65652       91.51357
C        -21.63303       74.95372       90.77075
O        -22.40321       74.02541       90.57031
C        -20.60138       74.58391       93.02782
C        -19.40675       74.07871       93.85284
C        -19.74743       74.12977       95.35169
C        -18.64105       73.51815       96.22120
N        -18.96860       73.64705       97.64260
H        -19.47702       76.63294       91.49243
H        -19.98972       73.65364       91.16645
H        -21.44866       73.88523       93.20952
H        -20.90543       75.59103       93.38138
H        -18.50821       74.70634       93.66631
H        -19.18179       73.03206       93.54966
H        -20.68920       73.56955       95.54277
H        -19.90090       75.19233       95.64331
H        -17.67347       74.02916       96.02288
H        -18.53001       72.44036       95.96562
H        -19.01606       74.65819       97.90718
H        -19.88557       73.18795       97.84964
H        -18.22379       73.18516       98.21277
N        -21.96357       76.21436       90.35661
C        -23.17180       76.56680       89.61288
C        -22.84682       77.20613       88.25093
O        -23.77214       77.55647       87.53188
C        -24.05248       77.48202       90.49331
C        -23.35886       78.72867       90.97958
O        -22.94764       79.56173       90.19222
O        -23.20431       78.93770       92.30055
H        -21.34658       76.99268       90.59419
H        -23.77418       75.65790       89.39430
H        -24.36283       76.89606       91.38614
H        -24.97327       77.76468       89.93995
N        -21.56141       77.33785       87.81165
C        -21.15146       77.83465       86.50402
C        -21.33873       79.31856       86.21469
O        -20.83614       79.72823       85.17679
H        -20.80351       76.96795       88.39379
H        -21.63831       77.23452       85.70527
H        -20.05597       77.65677       86.42214
N        -22.04074       80.18309       87.00862
C        -22.21868       81.60082       86.66755
C        -21.89169       82.53095       87.83917
O        -21.64421       82.06723       88.94181
C        -23.66730       81.82553       86.18138
C        -23.94906       81.04191       84.91929
N        -24.91458       80.09430       84.88602
O        -23.29713       81.27242       83.91101
H        -22.52752       79.82155       87.83463
H        -21.53470       81.88911       85.83877
H        -23.83907       82.89675       85.94492
H        -24.37395       81.53587       86.98933
H        -25.47853       79.88166       85.72106
H        -25.09809       79.56788       84.01834
N        -21.89573       83.88404       87.64874
C        -21.64808       84.88792       88.68104
C        -20.21351       84.91188       89.17521
O        -19.32207       85.01780       88.34602
H        -22.12181       84.23995       86.70701
H        -22.37439       84.77058       89.51230
H        -21.82747       85.88641       88.22557
N        -19.92611       84.91793       90.51762
C        -18.56658       84.98228       91.08705
C        -17.84233       83.61874       90.90261
O        -17.80110       83.37549       89.53936
C        -18.64927       85.41773       92.57931
C        -19.00779       86.87555       92.73499
C        -18.15790       87.85858       92.19195
C        -20.14019       87.27676       93.45992
C        -18.43668       89.21334       92.36432
C        -20.41497       88.63902       93.63665
C        -19.56532       89.60993       93.09130
O        -19.83590       90.91737       93.27785
H        -20.72590       84.93214       91.16943
H        -17.97025       85.74240       90.54028
H        -17.67661       85.35992       93.09137
H        -19.34757       84.74696       93.12706
H        -17.26673       87.57970       91.64379
H        -20.79964       86.54004       93.90073
H        -17.76716       89.95176       91.94049
H        -21.28404       88.94129       94.20637
H        -19.26342       91.61437       92.92530
N        -16.46020       83.54693       91.44417
C        -15.88923       82.17871       91.58096
C        -16.76465       81.29076       92.46642
O        -17.92235       81.09015       92.13913
C        -15.57615       81.49604       90.21206
C        -14.90696       80.09749       90.36527
C        -14.72539       82.40945       89.31218
C        -13.52791       80.09564       91.03669
H        -16.41403       83.93974       92.40371
H        -14.90440       82.30238       92.07920
H        -16.52105       81.31023       89.67997
H        -14.79271       79.64567       89.35549
H        -15.57705       79.42600       90.94323
H        -15.25538       83.36061       89.10214
H        -13.75711       82.66013       89.79044
H        -14.53304       81.91205       88.33743
H        -12.79891       80.69787       90.45775
H        -13.57722       80.48055       92.07339
H        -13.14544       79.05427       91.08296
N        -16.24034       80.66779       93.56754
C        -17.02722       79.74196       94.38742
C        -16.84877       79.92151       95.88941
O        -17.58605       79.26055       96.61974
C        -16.66514       78.30478       93.99841
O        -15.30663       78.06553       94.24752
H        -15.23306       80.75826       93.74637
H        -18.10532       79.88738       94.17504
H        -16.88255       78.18443       92.91709
H        -17.28603       77.57971       94.57074
H        -15.07753       77.23079       93.76477
N        -15.89237       80.71219       96.45146
C        -15.70486       80.77880       97.89958
C        -16.88252       81.48521       98.56561
O        -17.59621       82.19249       97.87029
C        -14.40088       81.51133       98.22359
H        -15.23578       81.23086       95.84786
H        -15.61534       79.73452       98.27058
H        -13.54577       80.99016       97.74236
H        -14.43783       82.55755       97.85161
H        -14.21540       81.52592       99.30894
N        -17.19293       81.35714       99.89190
C        -16.58271       80.41503      100.82306
C        -16.69994       80.93073      102.25545
O        -17.81287       81.26039      102.65467
C        -17.32458       79.07631      100.72991
H        -18.05123       81.84032      100.20633
H        -15.53234       80.21200      100.55128
H        -18.39958       79.19976      100.98448
H        -17.25391       78.66345       99.70213
H        -16.87335       78.34095      101.43094
N        -15.66126       80.98635      103.13907
C        -14.29932       80.53418      102.85463
C        -13.54621       81.52496      101.97189
O        -12.45453       81.18719      101.52413
C        -13.56640       80.28168      104.19655
C        -12.20827       79.57457      104.05564
C        -11.63721       79.24916      105.40705
O        -10.55674       79.70534      105.74515
O        -12.30900       78.43856      106.24786
H        -15.88037       81.28578      104.10229
H        -14.37421       79.54634      102.35064
H        -14.22017       79.61556      104.80348
H        -13.44137       81.23965      104.74878
H        -11.49031       80.21841      103.50909
H        -12.33837       78.62416      103.49464
N        -14.04237       82.76066      101.67602
C        -13.34600       83.72820      100.85054
H        -12.37412       83.34505      100.47245
H        -13.97851       83.99294       99.97817
H        -13.15221       84.64661      101.44222
H        -14.95332       83.05907      102.05695
Ca       -18.97909       81.50743       89.37065
O        -20.14706       78.42971       93.54174
H        -20.91512       77.94277       93.15393
H        -19.89038       77.89793       94.33656
O        -22.41068       82.52896       91.87262
H        -22.43000       83.01626       92.73417
H        -22.97005       83.07685       91.26734
O        -20.21426       81.67207       93.75598
H        -19.74486       82.34057       94.31530
H        -20.91687       81.29954       94.34531

Ca 1.0



