%chk=apoCaM-CA-Ng.loop2.water4.frame1013.chk
%nprocshared=20
%mem=10GB
%nosave
#b3lyp/svp scf=(tight,noincore,xqc) Test 
#IOP(5/87=12) Density=Current Pop=(MK,readradii) iop(6/33=2) iop(6/42=6)

apoCaM-CA-Ng.loop2.water4.frame1013 

   -2  1 
C         35.46538       45.42288       40.59174
C         34.37088       44.42359       40.86948
O         34.71959       43.33605       41.30564
H         36.16735       44.99169       39.84792
H         35.13984       46.40319       40.21334
H         36.02218       45.60797       41.53475
N         33.03486       44.64915       40.68730
C         32.39976       45.86085       40.16897
C         31.56416       45.51954       38.93668
O         31.68443       44.40950       38.43436
C         31.59280       46.55261       41.28982
C         30.41002       45.77689       41.77999
O         30.57362       44.60801       42.42627
O         29.29002       46.23674       41.63341
H         32.40151       43.87582       40.94452
H         33.13281       46.61723       39.84820
H         31.23732       47.53621       40.91744
H         32.26254       46.76814       42.14978
N         30.68896       46.42230       38.39275
C         29.91706       46.18875       37.17266
C         29.00815       44.95741       37.21823
O         28.44994       44.63077       36.17924
C         30.87731       46.10813       35.97565
H         30.57185       47.34173       38.83987
H         29.26970       47.07471       36.98439
H         31.49397       47.03143       35.92906
H         31.55045       45.23007       36.04610
H         30.30512       46.03736       35.02558
N         28.79702       44.22717       38.35602
C         28.04849       42.97147       38.36928
C         26.73618       43.11490       39.10703
O         26.33485       44.23988       39.37333
C         28.97502       41.82929       38.84720
C         29.49730       41.77802       40.26875
O         30.33824       40.92840       40.51499
O         29.09186       42.55847       41.29453
H         29.19136       44.54511       39.25149
H         27.76146       42.67805       37.33566
H         29.86553       41.87176       38.18081
H         28.48869       40.85117       38.65042
N         25.98541       42.02404       39.43535
C         24.70561       42.12500       40.11243
C         24.79961       41.56361       41.50696
O         25.57839       42.07633       42.29658
H         26.33063       41.07901       39.21555
H         23.93561       41.60091       39.50605
H         24.37668       43.18103       40.21355
N         23.99351       40.54116       41.89904
C         23.93903       40.03938       43.26825
C         24.30425       38.57398       43.29678
O         23.72601       37.78842       42.55716
C         22.53703       40.30304       43.83540
C         22.32611       41.79348       43.97927
N         21.37439       42.44112       43.27020
O         23.04149       42.42640       44.74226
H         23.34395       40.13036       41.20961
H         24.65981       40.57262       43.92646
H         22.43606       39.84380       44.84241
H         21.77233       39.84856       43.16749
H         20.76739       41.93508       42.61057
H         21.25688       43.46071       43.37221
N         25.28924       38.14036       44.13783
C         25.79775       36.78068       44.13958
C         26.55739       36.49570       42.85819
O         26.64132       37.37467       42.01091
H         25.71508       38.80403       44.80184
H         24.95574       36.06543       44.27384
H         26.50185       36.66230       44.99074
N         27.13906       35.29413       42.59540
C         27.15705       34.14531       43.49304
C         28.58739       33.64359       43.64157
O         29.07075       33.53253       44.75896
C         26.23428       33.04524       42.92596
C         26.13897       31.84599       43.87823
O         24.94897       33.58451       42.74997
H         27.57094       35.18689       41.66552
H         26.75687       34.41142       44.49492
H         26.63741       32.71234       41.94082
H         24.48654       33.02052       42.07677
H         25.46482       31.07705       43.44501
H         27.13597       31.38713       44.04307
H         25.72674       32.16285       44.85988
N         29.31383       33.31352       42.53202
C         30.66924       32.77486       42.53451
C         30.67935       31.38809       43.18156
O         31.29010       31.22486       44.22798
C         31.70106       33.78451       43.13764
C         31.55908       35.21109       42.53588
C         33.15112       33.27858       42.95597
C         31.78309       35.31389       41.02182
H         28.88283       33.44891       41.60713
H         30.98959       32.63369       41.48263
H         31.51548       33.88536       44.22820
H         32.28658       35.88400       43.04041
H         30.54487       35.60343       42.76147
H         33.86963       34.00594       43.38942
H         33.32100       32.31017       43.46482
H         33.39614       33.13199       41.88330
H         32.80935       35.00105       40.74198
H         31.04482       34.70305       40.46338
H         31.65719       36.37140       40.70767
N         30.06786       30.30195       42.61464
C         29.34556       30.31006       41.34708
C         30.26285       29.99878       40.17701
O         30.85333       30.93304       39.65544
C         27.98964       29.55489       41.39174
C         27.97719       28.10732       41.83115
O         26.91549       27.50546       41.83904
O         29.08842       27.46696       42.24188
H         30.20554       29.39662       43.08434
H         29.01293       31.33390       41.11552
H         27.52984       29.62284       40.38071
H         27.32167       30.08900       42.09341
N         30.38339       28.74686       39.65690
C         31.14083       28.45614       38.44898
C         30.13674       27.91141       37.43615
O         29.51106       26.91005       37.74371
C         32.23592       27.42360       38.78040
C         33.23730       27.25391       37.66593
C         33.30116       26.05905       36.93199
C         34.14777       28.28775       37.37787
C         34.25645       25.90401       35.92176
C         35.10965       28.12303       36.37702
C         35.16263       26.93262       35.64784
H         29.88711       27.96442       40.08935
H         31.63705       29.37309       38.07701
H         31.74992       26.45774       39.03944
H         32.80604       27.74689       39.67975
H         32.61078       25.25116       37.13780
H         34.12731       29.21212       37.94278
H         34.29863       24.98319       35.35504
H         35.81784       28.91578       36.17104
H         35.90816       26.80591       34.87335
N         29.87014       28.51813       36.23479
C         30.56341       29.66296       35.68078
C         30.21470       30.96775       36.37426
O         29.38731       30.99228       37.27725
C         30.13842       29.64794       34.20723
C         28.71693       29.13537       34.29840
C         28.85798       28.01636       35.32594
H         31.66636       29.51997       35.72886
H         30.27816       30.60072       33.65444
H         30.72363       28.85454       33.68754
H         28.10015       29.94902       34.74469
H         28.24954       28.81890       33.34214
H         27.87557       27.85155       35.82042
H         29.22774       27.06841       34.87819
N         30.90115       32.08871       36.02770
C         30.81389       33.36028       36.73841
C         32.00253       34.24406       36.35079
O         31.80188       35.35168       35.87359
C         29.44077       34.05062       36.52241
C         29.07770       34.27106       35.04176
C         27.80558       35.06030       34.92140
O         27.74310       36.31505       35.40920
O         26.83129       34.58062       34.36492
H         31.61204       31.99629       35.28296
H         30.92860       33.17859       37.83019
H         29.46214       35.02572       37.05911
H         28.63692       33.43995       36.98610
H         28.96379       33.28358       34.54340
H         29.86724       34.83591       34.50868
N         33.29889       33.84388       36.52312
C         33.72643       32.58577       37.10913
H         34.38300       32.79307       37.97863
H         32.89435       31.95566       37.47294
H         34.30141       32.00658       36.35601
H         34.04873       34.48239       36.21587
Ca        27.52452       44.11533       41.76049
O         25.29528       45.06409       44.12562
H         24.72033       44.55995       44.75374
H         25.19047       46.00956       44.40025
O         26.01531       46.71282       41.47030
H         25.51294       47.44147       41.91351
H         25.77407       46.78852       40.51316
O         27.89315       43.34908       44.85210
H         27.28284       42.89892       45.48885
H         28.77679       43.33103       45.29846
O         28.00837       46.67092       44.23487
H         28.99625       46.69127       44.29794
H         27.74993       47.61430       44.08138

Ca 1.0



