%chk=apoCaM-CA-Ng.loop1.water4.frame239.chk
%nprocshared=20
%mem=10GB
%nosave
#b3lyp/svp scf=(tight,noincore,xqc) Test 
#IOP(5/87=12) Density=Current Pop=(MK,readradii) iop(6/33=2) iop(6/42=6)

apoCaM-CA-Ng.loop1.water4.frame239 

   0  1 
C         41.70644        8.40008      100.62279
C         40.63094        7.35917      100.48524
O         39.59430        7.48652      101.11907
H         42.58684        8.16235       99.98716
H         41.31196        9.38945      100.31005
H         42.04275        8.45440      101.67835
N         40.80890        6.30171       99.64851
C         39.80631        5.26677       99.41054
C         39.71416        4.24034      100.55147
O         39.08335        3.22282      100.33304
C         40.12627        4.52681       98.08264
C         40.08446        5.43404       96.87545
O         40.95459        6.45347       96.74631
O         39.26921        5.23210       95.98922
H         41.68539        6.26496       99.10596
H         38.80550        5.72961       99.25093
H         39.35832        3.74154       97.92070
H         41.11874        4.03121       98.14122
N         40.29847        4.39708      101.77698
C         40.30052        3.34055      102.79632
C         39.54677        3.73969      104.06655
O         39.81982        4.82416      104.56199
C         41.76005        3.03677      103.19407
C         42.64451        2.44935      102.07980
C         42.19967        1.04115      101.65473
C         43.24066        0.36689      100.75315
N         42.83849       -1.00101      100.42080
H         40.79609        5.26889      101.99954
H         39.85197        2.42597      102.39958
H         41.76917        2.31880      104.04353
H         42.23010        3.97914      103.55353
H         43.66717        2.36835      102.50862
H         42.69117        3.12966      101.20169
H         41.22357        1.09039      101.12673
H         42.09635        0.41386      102.56569
H         44.21300        0.32835      101.29343
H         43.37787        0.95684       99.82044
H         41.95407       -0.99832       99.86908
H         43.58990       -1.45151       99.85068
H         42.69464       -1.56053      101.29279
N         38.66654        2.91784      104.74465
C         38.21806        1.56746      104.37065
C         39.38030        0.61081      104.14524
O         39.59034        0.17576      103.02464
C         37.16230        1.63773      103.24560
C         35.85824        2.20241      103.77822
O         35.68934        2.39678      105.10615
O         34.94051        2.44688      103.01537
H         38.29532        3.27728      105.63827
H         37.65613        1.10995      105.20805
H         36.92585        0.63314      102.84896
H         37.55371        2.25153      102.41388
N         40.15166        0.15990      105.17715
C         39.81952        0.43966      106.56622
C         40.67008       -0.31284      107.57203
O         41.67931       -0.89337      107.19946
H         40.92324       -0.48669      104.95428
H         38.78956        0.06368      106.71795
H         39.85684        1.52967      106.77722
N         40.29531       -0.41808      108.88347
C         39.04014        0.12002      109.41084
C         37.94301       -0.92643      109.34655
O         38.23218       -2.09113      109.10247
C         39.22674        0.69685      110.83253
C         39.61212       -0.30480      111.89898
O         39.73853       -1.49367      111.65007
O         39.80989        0.12476      113.15928
H         40.86661       -1.02551      109.48960
H         38.70643        0.96511      108.77494
H         38.27928        1.17993      111.15446
H         40.01280        1.48064      110.78940
N         36.63721       -0.56542      109.50900
C         35.54526       -1.52387      109.45180
C         35.39713       -2.23207      108.11495
O         34.58524       -3.14423      108.05516
H         36.40665        0.42235      109.69597
H         34.58360       -1.01277      109.67776
H         35.71898       -2.28715      110.24051
N         36.11787       -1.88326      107.00516
C         36.02773       -2.60208      105.73856
C         37.41087       -3.08346      105.34694
O         38.27796       -2.25059      105.11948
C         35.47283       -1.68335      104.62496
C         34.11315       -1.08775      104.98747
O         35.34771       -2.42241      103.43758
H         36.75203       -1.07451      107.04128
H         35.34571       -3.47546      105.83144
H         36.19082       -0.84661      104.47917
H         35.26937       -1.76862      102.69475
H         33.76451       -0.43119      104.16151
H         33.36692       -1.89291      105.15038
H         34.19948       -0.46854      105.90234
N         37.69907       -4.41293      105.23614
C         39.01639       -4.86762      104.78780
C         39.24808       -4.55262      103.30598
O         40.36747       -4.74007      102.84762
C         39.28324       -6.36697      105.12792
C         38.36037       -7.34118      104.35070
C         39.20050       -6.57150      106.65555
C         38.68219       -8.81621      104.61466
H         36.97451       -5.09903      105.48935
H         39.77846       -4.29576      105.36566
H         40.33322       -6.58851      104.82948
H         38.49487       -7.16533      103.26190
H         37.29436       -7.16483      104.60150
H         39.88298       -5.86397      107.17353
H         38.16921       -6.40567      107.03048
H         39.52363       -7.59048      106.94697
H         38.48379       -9.09044      105.67101
H         38.03531       -9.45752      103.98051
H         39.74445       -9.03300      104.37217
N         38.25310       -4.05586      102.50520
C         38.44408       -3.65038      101.11383
C         38.16969       -2.15707      100.95924
O         37.71851       -1.53013      101.90545
C         37.54675       -4.49512      100.17105
C         36.04059       -4.28372      100.41290
O         37.86423       -5.85307      100.33809
H         37.31235       -3.93115      102.89549
H         39.50300       -3.81779      100.81756
H         37.77696       -4.19268       99.12361
H         37.45039       -6.34369       99.58014
H         35.74268       -4.60379      101.43195
H         35.76417       -3.21855      100.27152
H         35.45546       -4.88448       99.68498
N         38.46008       -1.51134       99.79515
C         38.26362       -0.06917       99.60313
C         36.78286        0.33505       99.58405
O         35.91029       -0.51838       99.65287
C         39.00046        0.42472       98.31714
C         38.52367       -0.21611       97.01011
O         40.37865        0.19992       98.45745
H         38.90569       -2.06471       99.04955
H         38.74012        0.46265      100.45534
H         38.82621        1.51471       98.21366
H         40.85398        1.01641       98.14797
H         39.07464        0.24524       96.16190
H         38.73159       -1.30446       96.98739
H         37.43900       -0.04445       96.85794
N         36.45318        1.65508       99.43552
C         35.10346        2.17470       99.23629
C         34.80045        3.44184      100.05774
O         33.66813        3.90175      100.00211
C         34.93370        2.44378       97.72320
C         35.87244        3.54948       97.18257
C         35.98251        3.55379       95.65419
C         34.66054        3.81167       94.92739
N         34.87079        3.79705       93.47977
H         37.21818        2.31574       99.32494
H         34.36467        1.39217       99.51896
H         33.87895        2.70986       97.49717
H         35.16209        1.48738       97.20183
H         36.91008        3.38107       97.52398
H         35.54816        4.54156       97.56493
H         36.39577        2.57353       95.32768
H         36.70891        4.34455       95.36567
H         34.25375        4.79963       95.23590
H         33.92271        3.02328       95.18901
H         35.23999        2.86421       93.18150
H         33.96034        3.96965       92.99710
H         35.54975        4.54439       93.20611
N         35.74730        4.07107      100.82140
C         35.50339        5.27429      101.61828
C         35.09193        6.44503      100.74870
O         35.82713        6.80399       99.83826
C         36.78900        5.67456      102.39859
C         36.60377        6.92105      103.29882
C         35.61940        6.62574      104.38521
O         35.93915        5.68690      105.28581
O         34.52238        7.15862      104.40640
H         36.69099        3.67907      100.86364
H         34.70662        5.05004      102.36116
H         37.59685        5.88580      101.66888
H         37.12035        4.81872      103.02482
H         36.26497        7.78250      102.68667
H         37.57178        7.19811      103.76854
N         33.95825        7.14216      101.03377
C         33.59670        8.34532      100.31786
H         32.66271        8.77172      100.74198
H         34.40423        9.10227      100.42890
H         33.44136        8.12195       99.24272
H         33.35613        6.84174      101.81535
Ca        34.51953        4.10553      105.94708
O         32.28468        6.18296      106.30917
H         33.00839        6.79940      106.58571
H         31.78088        6.00640      107.14254
O         32.97986        4.27413      109.11494
H         33.65801        4.29218      109.83609
H         32.24499        3.71911      109.47898
O         32.06339        3.12853      104.60266
H         31.16185        3.45357      104.35623
H         32.66511        3.54540      103.93605
O         33.22137        1.45976      107.73921
H         32.66034        0.83671      107.21305
H         32.98635        1.26636      108.68134

Ca 1.0



