%chk=apoCaM-CA-Ng.loop3.water6.frame61.chk
%nprocshared=20
%mem=10GB
%nosave
#b3lyp/svp scf=(tight,noincore,xqc) Test 
#IOP(5/87=12) Density=Current Pop=(MK,readradii) iop(6/33=2) iop(6/42=6)

apoCaM-CA-Ng.loop3.water6.frame61 

   0  1 
C         25.61097       45.54522       66.27243
C         24.49576       46.37334       65.70878
O         23.63474       45.81626       65.04760
H         26.33022       46.16810       66.84394
H         25.19542       44.76708       66.94608
H         26.15563       45.05162       65.43949
N         24.45190       47.72065       65.91620
C         23.42665       48.59964       65.36265
C         23.49111       48.55930       63.84507
O         22.52099       48.20058       63.18986
C         22.01783       48.27313       65.91674
C         21.91898       48.35545       67.41896
O         22.98545       48.67712       68.17748
O         20.84913       48.12973       67.96095
H         25.19744       48.16003       66.47727
H         23.65259       49.64605       65.66870
H         21.70630       47.26304       65.60074
H         21.29132       48.99752       65.48779
N         24.63890       48.94699       63.22115
C         24.78654       48.99118       61.76952
C         24.87306       47.61446       61.12190
O         24.93508       47.57634       59.89958
C         25.99620       49.86266       61.37308
C         25.75708       51.32559       61.78651
C         26.89659       52.24271       61.34087
C         26.57643       53.69965       61.70468
N         27.64834       54.59636       61.27849
H         25.41488       49.28566       63.81081
H         23.88850       49.49101       61.33902
H         26.10930       49.84528       60.26631
H         26.92828       49.46227       61.82856
H         25.63991       51.40327       62.88851
H         24.81566       51.67714       61.30763
H         27.02366       52.16451       60.23878
H         27.84084       51.92769       61.83599
H         26.43730       53.78916       62.80528
H         25.62796       54.00459       61.20711
H         28.54013       54.34350       61.76237
H         27.77643       54.53552       60.24221
H         27.39082       55.57800       61.53041
N         24.82300       46.44430       61.83331
C         24.71756       45.13758       61.17589
C         23.51032       45.13550       60.23885
O         22.64417       45.99506       60.34445
C         24.70011       43.99022       62.24134
C         24.09712       42.68274       61.78997
O         22.90919       42.65883       61.54661
O         24.75883       41.51329       61.72945
H         24.79996       46.48070       62.85914
H         25.61006       44.99753       60.52681
H         24.05832       44.29551       63.09292
H         25.73032       43.85129       62.63318
N         23.45476       44.23730       59.21754
C         22.42189       44.26366       58.20007
C         21.05886       44.05537       58.80017
O         20.18189       44.88808       58.61962
H         24.20190       43.53138       59.12711
H         22.61569       43.44693       57.46955
H         22.46481       45.22796       57.64834
N         20.81339       42.92453       59.50778
C         19.49470       42.54641       59.99368
C         19.14929       43.14522       61.35553
O         18.01636       42.96079       61.77816
C         19.41999       41.00328       60.01387
C         20.37808       40.43168       61.07437
N         19.70970       40.23647       62.35494
O         21.05278       39.27510       60.66864
H         21.57745       42.23875       59.56638
H         18.74267       42.89585       59.25067
H         19.72763       40.65693       59.00168
H         18.38340       40.63837       60.18143
H         18.98443       39.48984       62.25066
H         20.41619       39.91079       63.05051
N         20.06261       43.81594       62.12547
C         19.74284       44.35769       63.43681
C         20.30755       43.51769       64.57174
O         19.99781       42.33788       64.64849
H         21.02112       43.94746       61.79160
H         18.64473       44.37095       63.59348
H         20.07422       45.41897       63.48741
N         21.02305       44.10746       65.57058
C         21.31706       43.45800       66.85438
C         22.44295       42.43231       66.77553
O         23.17137       42.41829       65.79387
C         21.67083       44.57473       67.87175
C         21.78111       44.16524       69.31814
C         20.67258       43.62243       69.98870
C         22.97760       44.37275       70.02556
C         20.75883       43.29453       71.34475
C         23.06055       44.04740       71.38271
C         21.94894       43.50934       72.04778
O         22.01105       43.20003       73.35849
H         21.19632       45.11630       65.48039
H         20.38200       42.95636       67.18665
H         20.86855       45.34302       67.83452
H         22.61132       45.06490       67.53799
H         19.73814       43.46448       69.46556
H         23.84324       44.79758       69.53238
H         19.89570       42.88208       71.85169
H         23.98647       44.21910       71.91696
H         22.81085       43.34469       73.88391
N         22.65257       41.56203       67.81556
C         23.79115       40.63930       67.90750
C         23.37766       39.16027       67.85295
O         24.23315       38.33338       67.56884
C         24.64523       40.99912       69.17054
C         26.00963       40.26397       69.18176
C         23.87151       40.75867       70.48812
C         26.95797       40.76182       70.27894
H         21.97921       41.58520       68.59108
H         24.43062       40.80155       67.01236
H         24.86431       42.08806       69.09547
H         26.51572       40.44653       68.20938
H         25.86734       39.16970       69.30591
H         22.91010       41.30010       70.50938
H         23.66153       39.68370       70.63835
H         24.43863       41.12902       71.36421
H         27.12865       41.85480       70.17472
H         26.56366       40.54842       71.29275
H         27.93470       40.24226       70.18898
N         22.09190       38.75201       68.06875
C         21.62572       37.37105       67.88125
C         22.23873       36.32272       68.81452
O         21.88293       35.16080       68.65716
C         20.09394       37.31981       68.04168
O         19.48939       38.19289       67.12789
H         21.38936       39.46228       68.31404
H         21.86508       37.06949       66.83723
H         19.82972       37.61441       69.08380
H         19.72794       36.28677       67.84516
H         18.52273       38.19836       67.35153
N         23.15060       36.61445       69.78707
C         23.72003       35.62141       70.69224
C         24.40351       34.49537       69.92644
O         24.06308       33.33767       70.11452
C         22.65024       35.10265       71.66900
H         23.47336       37.58042       69.90814
H         24.49502       36.12051       71.31588
H         22.21532       35.95319       72.23545
H         21.83276       34.57203       71.13917
H         23.10956       34.40178       72.39969
N         25.41829       34.78457       69.06124
C         26.17471       33.74466       68.35708
C         27.41333       34.31057       67.67637
O         27.56987       35.51723       67.58367
C         25.30329       33.00201       67.33406
H         25.68777       35.77284       68.96787
H         26.54375       33.03059       69.12637
H         25.88686       32.19945       66.83482
H         24.42963       32.52081       67.81754
H         24.93339       33.70879       66.56129
N         28.39967       33.45383       67.26886
C         29.70968       33.89586       66.79713
C         30.32124       34.82929       67.83142
O         30.71336       35.94132       67.49913
C         29.63682       34.53076       65.38893
C         29.18982       33.52287       64.32181
C         29.16703       34.16400       62.96274
O         28.12962       34.20894       62.32139
O         30.29476       34.68450       62.44016
H         28.26302       32.44207       67.40531
H         30.37346       33.00441       66.72696
H         30.65365       34.88868       65.11179
H         28.94948       35.40415       65.39502
H         28.17894       33.13301       64.57020
H         29.90174       32.66906       64.29465
N         30.37903       34.44024       69.13574
C         30.87598       35.28427       70.20251
H         31.24786       36.26245       69.83172
H         30.05496       35.47734       70.92557
H         31.70379       34.76592       70.72756
H         30.01827       33.50979       69.39827
Ca        23.21333       39.91505       61.17273
O         22.56178       37.15086       62.60919
H         22.84231       37.29823       63.54702
H         23.20364       36.48200       62.26153
O         22.88303       37.47803       59.15108
H         22.07733       37.49758       58.57565
H         23.55722       36.98491       58.62011
O         23.02968       39.88712       64.34991
H         22.89329       40.70264       63.80578
H         22.17046       39.76217       64.82561
O         25.82924       39.45794       59.40635
H         25.46385       39.08171       58.56667
H         26.57974       38.85653       59.64080
O         23.14263       40.70008       58.24692
H         22.21504       40.60340       57.91447
H         23.69285       40.78805       57.42953
O         25.74758       38.40201       62.53213
H         26.21106       37.66576       62.05919
H         26.44114       38.79645       63.11842

Ca 1.0



