%chk=apoCaM-CA-Ng.loop1.water5.frame532.chk
%nprocshared=20
%mem=10GB
%nosave
#b3lyp/svp scf=(tight,noincore,xqc) Test 
#IOP(5/87=12) Density=Current Pop=(MK,readradii) iop(6/33=2) iop(6/42=6)

apoCaM-CA-Ng.loop1.water5.frame532 

   0  1 
C         91.57145       18.56625       31.79837
C         92.34563       18.60166       30.51136
O         93.50497       18.98721       30.53693
H         90.53212       18.20826       31.64027
H         92.07347       17.89195       32.52236
H         91.52439       19.58980       32.22793
N         91.75543       18.22522       29.33833
C         92.38688       18.28556       28.01949
C         93.57125       17.31931       27.89968
O         93.95172       16.70358       28.88530
C         92.74728       19.76298       27.69922
C         93.14135       20.01346       26.27295
O         94.35813       20.51454       25.98606
O         92.35541       19.78032       25.36813
H         90.77422       17.90743       29.36804
H         91.62078       17.95118       27.28435
H         93.56663       20.10795       28.36298
H         91.85557       20.39678       27.89844
N         94.18180       17.12565       26.68940
C         95.34368       16.27541       26.41843
C         95.10304       14.78013       26.56757
O         96.03751       14.03979       26.28718
C         96.54899       16.63350       27.32002
C         96.96636       18.10463       27.29922
C         98.17996       18.28310       28.22391
C         98.64248       19.73868       28.30097
N         99.79606       19.86110       29.19335
H         93.82081       17.63906       25.87622
H         95.63218       16.44317       25.35634
H         97.42283       16.02383       26.99738
H         96.32014       16.34903       28.36991
H         96.12730       18.73633       27.66281
H         97.22878       18.40877       26.26292
H         99.01922       17.65427       27.85130
H         97.91194       17.94254       29.24906
H         97.81108       20.36989       28.68591
H         98.92100       20.09622       27.28531
H         99.54363       19.53700       30.15576
H        100.59370       19.28916       28.83089
H        100.09097       20.86252       29.24069
N         93.94799       14.25162       27.06432
C         93.85519       12.85336       27.46451
C         92.59797       12.21162       26.86596
O         91.54635       12.81239       27.03490
C         93.82243       12.84863       29.01207
C         94.15688       11.51338       29.59088
O         94.54818       10.60863       28.87693
O         94.01243       11.27218       30.89995
H         93.15718       14.86460       27.30182
H         94.77204       12.32118       27.15893
H         92.82037       13.18719       29.35792
H         94.58103       13.55017       29.42068
N         92.55260       11.04429       26.14472
C         93.63867       10.11192       25.87867
C         93.22045        8.70246       26.26890
O         93.16006        7.84908       25.39566
H         91.63764       10.77943       25.74443
H         94.57607       10.37255       26.39457
H         93.84728       10.12559       24.78668
N         92.88258        8.39781       27.55718
C         92.39906        7.08218       27.99185
C         91.91902        7.06171       29.48251
O         91.66832        8.33688       29.97747
C         93.45746        5.96662       27.78267
C         94.75354        6.17730       28.52940
O         94.96027        7.26978       29.28890
O         95.64025        5.34389       28.43468
H         92.90747        9.16183       28.23378
H         91.51309        6.85169       27.35850
H         93.70385        5.87105       26.70649
H         93.02405        4.99447       28.10238
N         90.69932        6.23862       29.59375
C         90.02615        6.32827       30.90262
C         89.14117        7.55967       31.09417
O         88.53809        7.65180       32.15067
H         90.99336        5.24470       29.45098
H         90.77950        6.27485       31.72009
H         89.35764        5.44603       31.00888
N         88.97803        8.52830       30.14290
C         88.14793        9.72157       30.35396
C         88.67976       10.63491       31.46673
O         89.77850       10.42329       31.95866
C         88.00922       10.52997       29.03099
C         89.33965       11.12431       28.53273
O         87.46786        9.69480       28.04015
H         89.42066        8.39358       29.22436
H         87.13290        9.37456       30.64712
H         87.30692       11.37511       29.21516
H         87.06247       10.28511       27.35220
H         89.77114       11.81990       29.28315
H         90.08833       10.33764       28.30617
H         89.15767       11.70052       27.60107
N         87.94251       11.71495       31.87169
C         88.41979       12.73389       32.81428
C         88.64941       12.24257       34.24836
O         89.12735       13.04472       35.03687
C         87.50439       14.00630       32.80920
C         86.06809       13.71452       33.32293
C         87.51068       14.65901       31.41102
C         85.18996       14.96612       33.42317
H         87.03083       11.85512       31.41612
H         89.41482       13.07721       32.44985
H         87.96413       14.75078       33.49830
H         86.13552       13.27902       34.34281
H         85.55274       12.98193       32.66881
H         87.03345       14.00832       30.65052
H         86.98491       15.63482       31.42071
H         88.55522       14.86808       31.09499
H         84.20246       14.69257       33.85079
H         85.66440       15.72351       34.08258
H         85.00434       15.41145       32.42446
N         88.39442       10.96222       34.65875
C         88.73931       10.48764       36.00514
C         87.56672        9.81746       36.70242
O         86.48606        9.71852       36.14256
C         89.96882        9.54419       35.93563
C         89.71374        8.29166       35.10238
O         91.06196       10.24015       35.39804
H         88.01098       10.28276       33.99020
H         89.03959       11.33668       36.65605
H         90.24761        9.18503       36.94987
H         91.40451       10.83652       36.11461
H         89.54177        8.58665       34.05608
H         90.59911        7.62454       35.13651
H         88.83936        7.72279       35.48164
N         87.75261        9.32009       37.96112
C         86.73160        8.65732       38.75351
C         86.56678        9.44506       40.04261
O         85.48981        9.97907       40.27398
C         87.12331        7.16289       38.96653
C         86.10880        6.40349       39.82314
O         88.39135        7.02904       39.55735
H         88.67804        9.42220       38.39727
H         85.75825        8.65974       38.21373
H         87.13184        6.66176       37.96854
H         89.06256        7.03077       38.82531
H         86.05863        6.83323       40.84623
H         85.10175        6.44064       39.35864
H         86.41851        5.33901       39.90999
N         87.59942        9.56174       40.92544
C         87.53752       10.31527       42.16676
C         88.76632       11.19964       42.28553
O         89.87632       10.68961       42.19122
C         87.47225        9.33133       43.34480
C         87.36435       10.07165       44.69173
C         87.14599        9.13539       45.88622
C         88.29864        8.14263       46.09659
N         88.07552        7.34009       47.29758
H         88.47938        9.06361       40.73326
H         86.61023       10.92956       42.21296
H         88.36918        8.67660       43.32898
H         86.56828        8.69633       43.21293
H         86.49558       10.76530       44.65042
H         88.27991       10.67745       44.86752
H         86.19339        8.57829       45.75056
H         87.05078        9.77031       46.79417
H         89.25616        8.69954       46.20070
H         88.37838        7.46105       45.22282
H         88.86322        6.66148       47.40641
H         88.04232        7.95911       48.14003
H         87.17828        6.80894       47.21379
N         88.64669       12.52572       42.56528
C         89.80681       13.38739       42.76891
C         90.63341       13.52417       41.49429
O         91.80382       13.17460       41.55146
C         89.41576       14.76386       43.35698
C         88.83165       14.61698       44.77458
C         88.45857       15.94923       45.35631
O         87.18611       16.18879       45.72670
O         89.30570       16.81428       45.51275
H         87.70035       12.91603       42.69340
H         90.46038       12.91783       43.54151
H         88.69275       15.29631       42.70883
H         90.33314       15.38946       43.43136
H         89.58429       14.13882       45.43969
H         87.92869       13.97141       44.75321
N         90.16485       14.00568       40.30416
C         88.80808       14.42267       40.01737
H         88.11599       14.29914       40.86326
H         88.80944       15.49022       39.71389
H         88.41389       13.81293       39.17775
H         90.83058       14.06907       39.51794
Ca        93.51749        9.11075       31.03217
O         96.47311        7.42231       32.65865
H         97.22343        7.36116       32.01550
H         96.87469        7.18561       33.53218
O         93.66592        6.13174       32.42293
H         93.67798        5.40714       31.74874
H         93.06450        5.79959       33.13610
O         95.17419       10.19278       33.66433
H         95.17078       11.17111       33.51267
H         95.77552       10.06294       34.43993
O         96.92116        9.98450       30.91168
H         96.95566       10.94857       31.13462
H         96.98316        9.95470       29.92405
O         92.18387        8.51550       33.35266
H         92.84833        8.76239       34.04258
H         91.85085        9.38243       33.01126

Ca 1.0



