%chk=apoCaM-CA-Ng.loop1.water6.frame543.chk
%nprocshared=20
%mem=10GB
%nosave
#b3lyp/svp scf=(tight,noincore,xqc) Test 
#IOP(5/87=12) Density=Current Pop=(MK,readradii) iop(6/33=2) iop(6/42=6)

apoCaM-CA-Ng.loop1.water6.frame543 

   0  1 
C         93.05001       35.22776       50.53801
C         93.79880       36.30574       49.81101
O         94.99994       36.17784       49.62454
H         92.25695       34.81574       49.87836
H         93.73114       34.40187       50.83448
H         92.57978       35.65023       51.45048
N         93.12873       37.40627       49.36304
C         93.72149       38.52308       48.62598
C         94.23089       38.07616       47.25971
O         94.32774       36.88359       47.02981
C         94.78176       39.24189       49.49063
C         95.27069       40.52948       48.89325
O         96.57583       40.68539       48.60108
O         94.49081       41.44513       48.68216
H         92.11519       37.45927       49.55193
H         92.88967       39.23706       48.43241
H         95.64769       38.57033       49.66297
H         94.32999       39.48464       50.47677
N         94.50488       38.99644       46.28525
C         94.80732       38.70988       44.88239
C         93.55626       38.17676       44.19382
O         92.97315       38.92482       43.42032
C         96.10914       37.89602       44.70428
C         96.48261       37.70090       43.22026
C         97.87608       37.07166       43.01928
C         99.02463       38.04487       43.35491
N        100.32954       37.42627       43.11822
H         94.41542       39.99354       46.52164
H         95.00858       39.69827       44.40544
H         96.03963       36.90002       45.18860
H         96.90574       38.47279       45.21657
H         96.45380       38.66863       42.67313
H         95.72164       37.02836       42.76802
H         97.97752       36.80213       41.94510
H         97.96040       36.13903       43.61837
H         98.97481       38.37033       44.41419
H         98.93175       38.94774       42.70970
H        100.45974       36.61052       43.75939
H        100.41049       37.11208       42.12392
H        101.08096       38.12853       43.30980
N         93.04500       36.93907       44.45411
C         91.75138       36.48628       43.97005
C         90.87495       36.08325       45.16025
O         90.64093       34.89487       45.32816
C         91.96669       35.33149       42.95426
C         90.67799       34.91019       42.28978
O         90.69000       34.16376       41.32523
O         89.51591       35.41016       42.73729
H         93.57859       36.26962       45.01657
H         91.22247       37.28854       43.40922
H         92.46465       34.45503       43.42209
H         92.62874       35.72595       42.15368
N         90.31614       36.97247       46.03829
C         90.46806       38.41777       46.03549
C         89.12967       39.10563       45.86159
O         88.63756       39.69787       46.81200
H         89.72455       36.58693       46.79221
H         91.15587       38.78484       45.25561
H         90.89791       38.70298       47.01979
N         88.50240       39.10198       44.65068
C         87.24700       39.81953       44.39310
C         86.04026       38.92836       44.65069
O         86.20084       37.73363       44.86399
C         87.21165       40.34205       42.92103
C         87.22392       39.22264       41.90008
O         87.19314       37.95560       42.34614
O         87.29895       39.45866       40.70532
H         88.99559       38.64764       43.86792
H         87.19207       40.70574       45.06395
H         88.10340       40.98598       42.76010
H         86.30817       40.96581       42.74982
N         84.78543       39.45280       44.57581
C         83.56426       38.66161       44.58640
C         83.27104       37.86462       45.84166
O         82.22826       37.22388       45.84628
H         84.68435       40.46634       44.41332
H         83.59352       37.95813       43.72726
H         82.70604       39.35011       44.42435
N         84.10348       37.81824       46.92424
C         83.80651       37.02427       48.11621
C         84.76523       35.85237       48.24552
O         85.68353       35.73398       47.44575
C         83.76720       37.92107       49.37185
C         85.11639       38.58083       49.68660
O         82.79143       38.91368       49.18261
H         84.98648       38.34095       46.90854
H         82.80018       36.56014       48.01749
H         83.48071       37.27756       50.23526
H         82.47760       39.19052       50.08235
H         85.90175       37.81083       49.83694
H         85.43205       39.26870       48.87581
H         85.02720       39.17643       50.61845
N         84.53403       34.88549       49.18089
C         85.24988       33.61060       49.22460
C         84.35634       32.50927       48.64041
O         84.87794       31.47324       48.25808
C         85.72895       33.30329       50.67785
C         86.67130       34.43229       51.17223
C         86.41583       31.92480       50.78375
C         87.06982       34.30412       52.64511
H         83.73638       35.01246       49.82295
H         86.13532       33.66118       48.55103
H         84.82892       33.28240       51.33281
H         86.15389       35.41003       51.07151
H         87.58916       34.46113       50.54508
H         87.31785       31.88304       50.13747
H         86.70473       31.69513       51.82762
H         85.72252       31.10913       50.49858
H         86.16377       34.29144       53.28771
H         87.66876       33.39119       52.83336
H         87.69613       35.17414       52.93329
N         83.01117       32.69428       48.48041
C         82.12192       31.75291       47.81078
C         81.05278       31.26208       48.77872
O         81.08442       31.63423       49.94251
C         81.53295       32.44091       46.54998
C         80.66552       33.67247       46.86417
O         82.59726       32.82075       45.71492
H         82.57048       33.54986       48.82949
H         82.68177       30.85720       47.46353
H         80.90306       31.69703       46.01388
H         82.21716       32.99210       44.81435
H         81.25362       34.47807       47.34909
H         80.25650       34.08901       45.92025
H         79.81401       33.39550       47.51995
N         80.06798       30.41489       48.35400
C         79.03449       29.88504       49.23678
C         79.08100       28.36332       49.18076
O         79.39880       27.74910       50.19096
C         77.66520       30.51560       48.87268
C         76.54766       30.06298       49.81512
O         77.31306       30.23429       47.54321
H         80.04187       30.13702       47.36345
H         79.24009       30.18902       50.28761
H         77.78931       31.61920       48.99215
H         76.70401       30.95845       47.24208
H         76.80493       30.31906       50.86493
H         75.60384       30.58663       49.55112
H         76.38214       28.96856       49.73387
N         78.81112       27.69229       48.02455
C         78.95981       26.25367       47.85258
C         79.89199       26.01026       46.68224
O         79.62530       26.50144       45.59198
C         77.59270       25.58440       47.59474
C         77.75272       24.06873       47.34152
C         76.41345       23.37377       47.08097
C         76.63957       21.90549       46.68343
N         75.37328       21.23629       46.39040
H         78.51339       28.22628       47.19632
H         79.37556       25.78179       48.77128
H         77.10455       26.05207       46.71208
H         76.94204       25.74461       48.48275
H         78.25562       23.58716       48.20977
H         78.38873       23.92202       46.44209
H         75.89250       23.88944       46.24565
H         75.77850       23.43055       47.99218
H         77.16345       21.36499       47.50314
H         77.28340       21.86754       45.77543
H         75.56802       20.25374       46.08951
H         74.77041       21.21813       47.24432
H         74.87605       21.73198       45.61492
N         80.97554       25.20281       46.82259
C         81.86338       24.88182       45.71378
C         82.61656       26.12199       45.23766
O         82.47147       26.44686       44.06781
C         82.78903       23.69823       46.07065
C         81.97266       22.40420       46.25705
C         82.84549       21.25729       46.67243
O         83.75998       20.88402       45.95548
O         82.61194       20.62494       47.83862
H         81.14282       24.76291       47.74106
H         81.24881       24.51790       44.85667
H         83.35276       23.90070       46.99829
H         83.51212       23.53449       45.24126
H         81.46307       22.14377       45.30315
H         81.19305       22.54942       47.03455
N         83.41026       26.90460       46.02791
C         83.65782       26.69577       47.43760
H         84.30328       27.51268       47.82461
H         82.70790       26.71610       48.00872
H         84.20369       25.75157       47.60751
H         83.85426       27.73084       45.59667
Ca        87.69083       35.93137       41.57562
O         87.06986       35.13040       38.87331
H         88.02715       35.03830       39.11202
H         86.85313       36.07733       39.06869
O         84.63802       37.06634       41.37607
H         84.62753       37.47235       40.47330
H         83.82105       36.50900       41.41127
O         84.71104       35.08114       44.18627
H         83.79191       34.98226       43.83253
H         84.65417       34.74937       45.11697
O         87.48141       32.70989       42.61352
H         88.46462       32.76238       42.51275
H         87.34490       32.24021       43.47444
O         84.92121       33.86095       41.31540
H         84.38387       33.87461       40.48406
H         84.74879       32.96887       41.70894
O         87.68472       34.74241       45.05641
H         87.16565       34.47867       45.85448
H         88.30622       33.98526       44.92050

Ca 1.0



