%chk=apoCaM-CA-Ng.loop4.water5.frame6.chk
%nprocshared=20
%mem=10GB
%nosave
#b3lyp/svp scf=(tight,noincore,xqc) Test 
#IOP(5/87=12) Density=Current Pop=(MK,readradii) iop(6/33=2) iop(6/42=6)

apoCaM-CA-Ng.loop4.water5.frame6 

   -3  1 
C         70.91463       47.52826       83.52782
C         72.00168       48.28645       84.22526
O         71.85395       49.48267       84.40429
H         70.08156       48.21044       83.24829
H         71.31982       47.07004       82.60159
H         70.51989       46.73523       84.19473
N         73.12177       47.64283       84.66640
C         74.26130       48.29304       85.31555
C         73.83270       49.12185       86.51779
O         74.13709       50.29845       86.57112
C         75.16759       49.02818       84.28221
C         74.46265       50.06156       83.44820
O         74.31381       49.86855       82.25284
O         73.92890       51.16171       84.00874
H         73.16733       46.61908       84.54843
H         74.91646       47.49137       85.72493
H         75.56012       48.24864       83.59108
H         76.04266       49.48608       84.79220
N         73.13606       48.52946       87.53230
C         72.72076       49.13727       88.80295
C         73.93058       49.45226       89.67919
O         74.14182       48.71999       90.63677
C         71.74583       50.33669       88.64271
C         71.26373       50.89686       90.00832
C         70.54207       49.97550       87.75594
C         70.50087       49.91319       90.90182
H         72.88971       47.53481       87.40735
H         72.15699       48.33423       89.32827
H         72.28378       51.16081       88.13582
H         70.59386       51.75730       89.80950
H         72.13899       51.27152       90.58180
H         70.88018       49.67309       86.74719
H         69.95384       49.13951       88.18546
H         69.88081       50.86031       87.63327
H         69.58179       49.54538       90.40311
H         71.13784       49.05325       91.19119
H         70.19707       50.43290       91.83489
N         74.79043       50.48264       89.41197
C         76.04001       50.64707       90.14089
C         75.80464       51.01907       91.60232
O         76.16058       50.20303       92.44064
C         77.01356       51.59324       89.39496
C         78.39671       51.55914       89.98565
O         78.61173       51.97283       91.24866
O         79.33679       51.16304       89.31477
H         74.60390       51.11742       88.62914
H         76.54744       49.65400       90.10608
H         76.66828       52.64042       89.36896
H         77.07955       51.24751       88.33871
N         75.25960       52.19434       92.04512
C         74.78421       53.31190       91.24116
C         75.66310       54.53434       91.47613
O         76.64091       54.41833       92.20246
H         75.19890       52.32570       93.06777
H         73.74711       53.53822       91.56179
H         74.74441       53.06520       90.16835
N         75.40713       55.76326       90.93417
C         74.26967       56.08296       90.07253
C         74.39560       55.37786       88.72250
O         75.49636       54.96240       88.38728
C         74.21424       57.61572       89.82739
C         74.03464       58.42662       91.08483
O         73.93836       57.83457       92.29030
O         73.97624       59.64347       91.01107
H         76.05435       56.52698       91.18917
H         73.34891       55.77562       90.60429
H         73.37990       57.88090       89.15563
H         75.15528       57.93932       89.33045
N         73.35119       55.21602       87.85227
C         71.96104       55.56369       88.11618
C         71.36326       54.73618       89.23031
O         72.02527       53.85580       89.75539
H         73.55788       54.79662       86.93419
H         71.35506       55.38187       87.20409
H         71.86934       56.63711       88.35167
N         70.09884       54.99738       89.65945
C         69.47414       54.32561       90.79780
C         68.15410       53.65251       90.43111
O         67.50843       53.12918       91.33010
C         69.14558       55.39280       91.86695
C         70.36384       56.17934       92.37635
C         69.96854       57.21869       93.40657
N         70.91161       57.99809       93.98040
O         68.79734       57.36591       93.72829
H         69.57577       55.75711       89.19534
H         70.15150       53.56588       91.24253
H         68.66746       54.89792       92.74134
H         68.41781       56.11582       91.43064
H         70.85820       56.70127       91.52837
H         71.08946       55.47244       92.83216
H         71.90307       57.89188       93.73217
H         70.64887       58.70870       94.67952
N         67.62788       53.73455       89.17642
C         66.20272       53.54527       88.92240
C         65.59974       54.93624       88.86772
O         66.32783       55.87474       88.58085
C         65.96414       52.74098       87.61257
C         64.50675       52.82127       87.11915
C         66.34383       51.26862       87.81716
H         68.17350       54.17863       88.42374
H         65.70528       53.02257       89.76974
H         66.59896       53.17134       86.80888
H         64.37658       52.22439       86.19270
H         63.80102       52.44353       87.88750
H         64.23986       53.86883       86.86075
H         65.69610       50.81054       88.59665
H         66.20107       50.69906       86.87430
H         67.40339       51.17224       88.12903
N         64.30105       55.14405       89.24289
C         63.60500       56.43066       89.24771
C         63.20037       56.86316       87.84313
O         62.01045       57.05633       87.62935
C         64.36854       57.52308       90.03866
C         63.58511       58.81267       90.14213
N         62.37294       58.84888       90.74258
O         64.05785       59.84227       89.68452
H         63.76379       54.33005       89.57932
H         62.65004       56.26765       89.79630
H         65.34034       57.75344       89.56188
H         64.57275       57.15227       91.06644
H         61.95448       58.00056       91.14881
H         61.84998       59.73510       90.80449
N         64.09937       57.01218       86.82808
C         63.71223       57.45065       85.49332
C         64.79785       57.17171       84.45798
O         65.87417       56.70768       84.80977
C         63.37058       58.96623       85.52118
C         64.59926       59.85732       85.65672
C         65.47111       59.76391       86.75838
C         64.88935       60.79550       84.64928
C         66.60907       60.57120       86.83991
C         66.02338       61.60898       84.73663
C         66.88997       61.49637       85.82711
O         67.98715       62.27771       85.88935
H         65.07916       56.79542       86.99524
H         62.82153       56.85693       85.18923
H         62.65774       59.18526       86.34354
H         62.84606       59.21735       84.57493
H         65.29060       59.06536       87.55508
H         64.24000       60.89728       83.78935
H         67.27312       60.47353       87.69015
H         66.23215       62.32322       83.95059
H         68.61821       62.22185       86.62125
N         64.56042       57.42763       83.13974
C         65.55152       57.32213       82.07089
C         66.21501       55.95253       81.93405
O         67.16334       55.86055       81.16606
C         66.57590       58.49196       82.10817
C         67.56157       58.52534       83.28917
C         68.57698       59.63242       83.17194
O         68.57529       60.40125       82.22244
O         69.50338       59.77945       84.13751
H         63.61697       57.74496       82.86910
H         65.01797       57.49331       81.10874
H         66.01534       59.45276       82.08280
H         67.17353       58.43343       81.17118
H         68.10887       57.56034       83.34190
H         67.01642       58.70021       84.23421
N         65.74562       54.83289       82.56570
C         66.37809       53.52296       82.41661
C         65.52199       52.59975       81.54704
O         65.97827       51.51381       81.21860
C         66.59406       52.91205       83.82212
C         67.53759       51.69391       83.86992
C         68.97994       52.10264       83.78569
O         69.76987       51.69705       82.77420
O         69.46244       52.76671       84.68814
H         64.88953       54.88921       83.13632
H         67.36233       53.64271       81.91413
H         65.59393       52.61556       84.20319
H         66.99525       53.68146       84.51739
H         67.28584       50.94545       83.09672
H         67.42005       51.18540       84.84964
N         64.27119       52.95097       81.12729
C         63.46116       52.06558       80.31909
H         62.47575       52.53523       80.11364
H         63.96937       51.86195       79.35319
H         63.29055       51.10931       80.85896
H         63.85739       53.85576       81.39005
Ca        72.00130       51.92104       83.09858
O         74.28460       54.07702       83.54927
H         74.68513       54.84511       84.02832
H         74.47613       54.24948       82.59326
O         72.24700       52.67177       85.93588
H         73.15411       52.63218       86.32902
H         71.66124       52.95149       86.68223
O         71.29340       55.05653       84.10375
H         70.67678       55.03659       84.87749
H         71.96675       55.74009       84.34571
O         72.00535       50.39642       80.48628
H         72.68145       51.11587       80.56201
H         71.78001       50.37397       79.52334
O         71.76890       53.88399       80.88914
H         71.56770       54.84283       81.03019
H         72.59445       53.87866       80.34253

Ca 1.0



