%chk=apoCaM-CA-Ng.loop1.water3.frame81.chk
%nprocshared=20
%mem=10GB
%nosave
#b3lyp/svp scf=(tight,noincore,xqc) Test 
#IOP(5/87=12) Density=Current Pop=(MK,readradii) iop(6/33=2) iop(6/42=6)

apoCaM-CA-Ng.loop1.water3.frame81 

   0  1 
C         52.37347       48.77084       49.26326
C         51.55666       49.66737       50.15034
O         52.03344       50.73497       50.50603
H         53.30943       48.48238       49.78644
H         51.82080       47.84432       48.99883
H         52.63071       49.30633       48.32584
N         50.31765       49.28194       50.56578
C         49.47112       50.08315       51.44695
C         49.28360       49.40864       52.80142
O         48.50665       49.91438       53.60077
C         48.10757       50.36623       50.76982
C         47.22113       49.15494       50.61634
O         46.02794       49.12186       51.24072
O         47.55757       48.21311       49.91758
H         49.97174       48.35866       50.26644
H         49.93798       51.07409       51.63812
H         48.27240       50.83342       49.77491
H         47.56060       51.10508       51.39613
N         49.96696       48.27426       53.13587
C         49.76323       47.53310       54.37257
C         51.01011       47.55861       55.23068
O         52.08561       47.34838       54.68640
C         49.32099       46.09944       54.04241
C         47.89704       46.14200       53.46656
C         47.28459       44.75124       53.30283
C         45.77665       44.82884       52.99957
N         45.48496       45.51418       51.74005
H         50.66250       47.88461       52.48275
H         48.94743       47.95904       54.94906
H         49.29051       45.51202       54.98310
H         50.03538       45.59891       53.35213
H         47.90183       46.68617       52.49850
H         47.25481       46.69857       54.18461
H         47.38856       44.20273       54.26499
H         47.82475       44.18445       52.51466
H         45.26065       45.35734       53.83387
H         45.37259       43.79474       52.95462
H         45.78445       46.51310       51.78316
H         45.96195       45.02919       50.94673
H         44.45190       45.49929       51.58055
N         50.99416       47.76812       56.58743
C         49.82320       47.89578       57.46647
C         48.94184       46.64511       57.39890
O         47.81586       46.72736       56.92767
C         49.02624       49.21308       57.31985
C         49.84996       50.45011       57.52049
O         49.22049       51.63284       57.49139
O         51.05994       50.40842       57.67946
H         51.90913       47.76413       57.06610
H         50.19095       47.97799       58.50824
H         48.23430       49.20356       58.09783
H         48.50002       49.32945       56.36182
N         49.35877       45.44197       57.89330
C         50.62149       45.31555       58.59758
C         50.83604       43.99892       59.30308
O         50.03334       43.08844       59.15944
H         48.71703       44.63676       57.83282
H         50.59547       46.05672       59.39593
H         51.46968       45.51415       57.91075
N         51.91619       43.81001       60.11867
C         52.93968       44.82726       60.38062
C         52.35932       46.01313       61.14972
O         51.85185       45.81988       62.24626
C         54.10822       44.22854       61.19912
C         54.81974       43.08615       60.51464
O         54.47902       42.69202       59.40969
O         55.85506       42.49040       61.13568
H         52.01935       42.88244       60.56100
H         53.36447       45.17111       59.41139
H         53.72925       43.86703       62.17983
H         54.86070       45.02575       61.38603
N         52.41716       47.27868       60.63322
C         51.92220       48.45738       61.33711
C         50.41529       48.48167       61.51375
O         49.72230       47.60096       61.02677
H         52.87175       47.42369       59.71876
H         52.19853       49.36949       60.76437
H         52.41714       48.51103       62.33008
N         49.83629       49.47816       62.24487
C         48.39285       49.52880       62.48258
C         47.62603       49.96636       61.24240
O         48.22315       50.47946       60.30771
C         48.03647       50.41759       63.70382
C         48.39343       51.89896       63.52149
O         48.69579       49.93480       64.84608
H         50.45774       50.15940       62.70378
H         48.06703       48.49688       62.74477
H         46.93463       50.37922       63.87377
H         48.19268       49.13540       65.15348
H         49.48381       52.04551       63.38382
H         47.85873       52.33020       62.64995
H         48.08928       52.46367       64.42878
N         46.27965       49.76295       61.17024
C         45.47557       50.11854       60.00318
C         45.12048       51.59389       60.06513
O         44.39423       51.97979       60.97162
C         44.18454       49.23331       59.94931
C         44.57612       47.74135       59.76503
C         43.22863       49.68898       58.82594
C         43.39997       46.77053       59.89823
H         45.82434       49.26937       61.95376
H         46.05200       49.90568       59.07509
H         43.64454       49.34809       60.91652
H         45.30998       47.44840       60.54451
H         45.05979       47.60039       58.77319
H         42.91183       50.73865       58.98746
H         43.71652       49.60746       57.83194
H         42.29346       49.09492       58.82276
H         42.93199       46.87371       60.90041
H         42.63402       46.93379       59.11492
H         43.77089       45.72951       59.78883
N         45.57379       52.46929       59.11693
C         45.14599       53.87076       59.06219
C         44.49943       54.24256       57.72512
O         43.90496       55.30932       57.65803
C         46.31218       54.82388       59.41184
C         47.42122       54.81246       58.35814
O         46.86333       54.46625       60.65316
H         46.24504       52.12052       58.41813
H         44.36096       54.03608       59.83242
H         45.93449       55.87151       59.46705
H         46.19340       54.70132       61.34711
H         47.84173       53.79564       58.24729
H         47.03310       55.15045       57.37487
H         48.23572       55.50319       58.66250
N         44.57079       53.42975       56.62456
C         43.89533       53.67308       55.34923
C         44.37569       54.95094       54.65106
O         45.15657       55.71108       55.20621
C         42.34815       53.59922       55.55008
C         41.93538       52.28068       56.22364
O         41.64444       53.72859       54.34105
H         45.10364       52.55280       56.67384
H         44.17674       52.83705       54.66876
H         42.02392       54.43011       56.20987
H         41.86995       52.94419       53.77343
H         40.83338       52.24793       56.34953
H         42.25026       51.41282       55.60367
H         42.40018       52.19035       57.22445
N         43.95947       55.21009       53.37805
C         44.34904       56.37112       52.57404
C         45.82017       56.38212       52.18486
O         46.25080       57.35850       51.58593
C         43.44873       56.42901       51.31999
C         43.66588       55.23030       50.36143
C         42.44432       54.93478       49.47590
C         41.26021       54.38935       50.30974
N         40.14665       53.98115       49.45843
H         43.30204       54.54539       52.95957
H         44.13456       57.28401       53.17339
H         43.57707       57.37644       50.75126
H         42.42008       56.44584       51.72436
H         43.88232       54.28877       50.90546
H         44.56458       55.44082       49.74126
H         42.74151       54.14205       48.75518
H         42.14720       55.83834       48.90173
H         40.88756       55.14886       51.02589
H         41.60085       53.50706       50.89803
H         40.45119       53.21910       48.81074
H         39.37492       53.61865       50.06506
H         39.79394       54.79965       48.91243
N         46.65931       55.35615       52.50511
C         48.08538       55.39419       52.21932
C         48.31241       55.17175       50.73889
O         48.01912       54.09092       50.24440
C         48.82794       54.33316       53.06864
C         48.61413       54.50977       54.59198
C         49.28164       55.73354       55.18333
O         50.14439       55.60374       56.21367
O         48.99752       56.85164       54.78767
H         46.28881       54.53910       53.00591
H         48.47976       56.38884       52.50575
H         49.91743       54.34232       52.84751
H         48.43263       53.33077       52.78827
H         49.01707       53.60545       55.08329
H         47.53368       54.53609       54.83436
N         48.80985       56.16998       49.95902
C         49.03001       55.99996       48.53934
H         49.79377       55.21249       48.36699
H         48.08121       55.71405       48.03654
H         49.39180       56.95208       48.09611
H         49.02181       57.08779       50.37842
Ca        50.27894       53.58768       57.20191
O         51.41706       51.60397       54.94201
H         51.87823       50.87250       54.46037
H         50.45987       51.48119       54.72195
O         53.21249       52.19284       59.45781
H         53.75591       51.37420       59.33564
H         53.13352       52.29363       60.43975
O         50.21126       53.15461       60.36078
H         49.24164       53.28659       60.21675
H         50.34403       52.17911       60.25858

Ca 1.0



