%chk=apoCaM-CA-Ng.loop1.water3.frame34.chk
%nprocshared=20
%mem=10GB
%nosave
#b3lyp/svp scf=(tight,noincore,xqc) Test 
#IOP(5/87=12) Density=Current Pop=(MK,readradii) iop(6/33=2) iop(6/42=6)

apoCaM-CA-Ng.loop1.water3.frame34 

   0  1 
C         73.10341       57.41237       56.44587
C         72.13745       56.55441       57.20659
O         71.92212       56.80398       58.38346
H         73.94351       56.78751       56.07694
H         72.58894       57.88331       55.58261
H         73.51507       58.21338       57.09729
N         71.51691       55.51219       56.58550
C         70.57307       54.62088       57.25461
C         71.07532       53.17671       57.28236
O         70.36049       52.32591       57.79066
C         69.19413       54.73964       56.56497
C         69.16719       54.16246       55.17778
O         68.93742       54.87277       54.21240
O         69.34341       52.83991       55.00561
H         71.72105       55.34689       55.58698
H         70.43030       54.93794       58.30922
H         68.90919       55.81497       56.53594
H         68.42306       54.20391       57.15504
N         72.27973       52.82344       56.74244
C         72.76605       51.45049       56.64467
C         73.61528       51.10793       57.85691
O         74.49957       51.89840       58.15938
C         73.66577       51.30851       55.39269
C         72.98797       51.66187       54.05661
C         71.83338       50.71730       53.68070
C         71.30991       50.96551       52.25198
N         70.68347       52.27890       52.08759
H         72.88077       53.55328       56.33546
H         71.92376       50.75687       56.50996
H         74.05280       50.26862       55.32924
H         74.54476       51.98203       55.50430
H         73.76951       51.57879       53.27010
H         72.64062       52.71457       54.08610
H         70.99797       50.80171       54.40636
H         72.21620       49.67386       53.71252
H         70.55619       50.18251       52.01475
H         72.14844       50.86075       51.52879
H         70.36718       52.38182       51.09683
H         69.84315       52.35065       52.69977
H         71.35296       53.05232       52.29661
N         73.51366       49.95217       58.58467
C         72.60485       48.82300       58.38118
C         72.70974       48.25943       56.96071
O         71.71221       48.26159       56.25101
C         71.14142       49.15905       58.75784
C         70.99334       49.85296       60.07899
O         71.45689       51.10868       60.21687
O         70.35941       49.33632       60.98520
H         74.19587       49.83393       59.35152
H         72.90711       48.02313       59.09535
H         70.56767       48.20513       58.77055
H         70.66368       49.81403       58.00946
N         73.86211       47.75366       56.43703
C         75.08746       47.58146       57.20028
C         76.22718       46.99281       56.37144
O         76.12416       46.93407       55.15542
H         73.82665       47.42936       55.45891
H         74.84387       46.90458       58.03418
H         75.43900       48.54851       57.61200
N         77.38258       46.54699       56.95087
C         77.57373       46.46021       58.39706
C         76.67773       45.36882       58.96789
O         76.14932       44.58147       58.19797
C         79.04264       46.13805       58.73409
C         79.97429       47.17335       58.16472
O         80.82950       46.85056       57.35521
O         79.86506       48.46247       58.53825
H         78.14078       46.22703       56.32642
H         77.31312       47.44510       58.84387
H         79.30462       45.13805       58.31951
H         79.18151       46.10578       59.83547
N         76.44383       45.25435       60.30378
C         75.55696       44.23076       60.84938
C         74.11353       44.39325       60.39251
O         73.80348       45.34573       59.69440
H         76.90490       45.90808       60.95497
H         75.57201       44.28417       61.95891
H         75.93147       43.22938       60.54482
N         73.17004       43.48779       60.79615
C         71.73562       43.52553       60.47768
C         71.40977       44.20431       59.14811
O         70.67583       45.18209       59.10553
C         70.93773       44.05330       61.69433
C         71.32691       45.48069       62.10475
O         71.15767       43.19216       62.78361
H         73.47724       42.73808       61.43458
H         71.40185       42.47541       60.31678
H         69.85664       44.03603       61.41476
H         70.31537       43.15599       63.30773
H         72.39490       45.52511       62.40478
H         71.15774       46.20555       61.28407
H         70.70984       45.79710       62.97168
N         71.94166       43.69616       58.00156
C         71.76071       44.30270       56.68130
C         70.32737       44.25069       56.15386
O         70.11530       44.76158       55.06487
C         72.75844       43.69802       55.63676
C         72.49091       42.19959       55.33016
C         74.19964       43.93631       56.10533
C         73.49004       41.59481       54.33749
H         72.55689       42.87657       58.10016
H         72.02599       45.37950       56.77101
H         72.64177       44.27034       54.68869
H         71.47359       42.10261       54.89478
H         72.52870       41.59072       56.25650
H         74.93507       43.69405       55.31300
H         74.33520       45.00573       56.34746
H         74.42996       43.32325       56.99809
H         74.51248       41.56786       54.77023
H         73.20587       40.54602       54.11333
H         73.50616       42.17604       53.39175
N         69.29748       43.65827       56.82906
C         67.94194       43.58726       56.27834
C         67.28140       44.94624       56.03947
O         66.26217       44.95619       55.36218
C         67.01071       42.70945       57.15940
C         66.80780       43.27383       58.57734
O         67.54061       41.41230       57.24322
H         69.49024       43.19223       57.72367
H         68.02639       43.09164       55.28456
H         66.01668       42.66491       56.65253
H         66.78995       40.81101       57.49204
H         66.10288       42.62648       59.14022
H         67.76086       43.31398       59.14290
H         66.37731       44.29315       58.54269
N         67.74679       46.11605       56.58160
C         67.08646       47.41465       56.38496
C         65.64689       47.36583       56.93586
O         65.28322       46.37594       57.55534
C         67.17750       47.86491       54.88560
C         68.59844       47.76344       54.31832
O         66.74466       49.19096       54.71352
H         68.58248       46.09664       57.18380
H         67.64447       48.17785       56.97322
H         66.52848       47.21364       54.26484
H         67.32440       49.77577       55.27166
H         68.93739       46.71524       54.31369
H         68.60823       48.12194       53.26692
H         69.30627       48.38023       54.91163
N         64.76349       48.38564       56.74265
C         63.39244       48.38384       57.24296
C         63.10976       49.62497       58.07941
O         61.95714       49.86308       58.41401
C         62.39994       48.20238       56.07543
C         62.51017       49.22442       54.93215
C         61.38843       49.04860       53.88802
C         61.36051       47.65914       53.22129
N         60.27709       47.57124       52.24247
H         65.04393       49.21112       56.20414
H         63.19942       47.51306       57.90763
H         61.36689       48.21766       56.48739
H         62.58420       47.19029       55.65793
H         63.49812       49.12523       54.43239
H         62.42693       50.25153       55.34745
H         61.52615       49.82080       53.10009
H         60.40927       49.23012       54.38206
H         61.19473       46.86944       53.98414
H         62.33272       47.46446       52.71702
H         60.26971       46.61242       51.82468
H         59.35661       47.73808       52.71125
H         60.41884       48.27335       51.48106
N         64.12697       50.41404       58.53271
C         63.91614       51.56161       59.40837
C         63.19780       52.70116       58.70537
O         62.99355       52.64320       57.49998
C         65.26050       52.01179       60.02941
C         66.31861       52.49289       59.01603
C         67.62068       52.73361       59.72107
O         68.12884       53.84175       59.72381
O         68.24048       51.71454       60.34704
H         65.09187       50.13105       58.32586
H         63.27545       51.22353       60.25311
H         65.66541       51.13486       60.58179
H         65.08339       52.82003       60.77165
H         65.96591       53.41924       58.51370
H         66.51860       51.73413       58.23339
N         62.76076       53.76975       59.43063
C         62.04627       54.89422       58.86025
H         61.03848       54.95994       59.32255
H         62.60025       55.83080       59.07913
H         61.92216       54.80669       57.76069
H         62.92122       53.78344       60.44891
Ca        70.73210       52.40314       61.90460
O         71.84210       53.73158       64.17917
H         72.22576       54.42365       63.58386
H         70.86325       53.87405       64.12441
O         72.76465       54.28937       60.36332
H         73.42347       54.81250       60.88535
H         73.30262       53.59563       59.90714
O         69.92239       55.78242       61.21413
H         69.13162       56.25842       60.85597
H         70.64342       55.98571       60.56825

Ca 1.0



