%chk=apoCaM-CA-Ng.loop2.water4.frame1187.chk
%nprocshared=20
%mem=10GB
%nosave
#b3lyp/svp scf=(tight,noincore,xqc) Test 
#IOP(5/87=12) Density=Current Pop=(MK,readradii) iop(6/33=2) iop(6/42=6)

apoCaM-CA-Ng.loop2.water4.frame1187 

   -2  1 
C         22.29951        9.23839      105.27884
C         21.06834        9.51551      106.10708
O         20.03168        9.73232      105.49686
H         23.21238        8.99068      105.84259
H         22.09144        8.36468      104.62463
H         22.51724       10.11549      104.63546
N         21.02593        9.49962      107.47375
C         22.14836        9.28353      108.38396
C         22.18751       10.40516      109.42342
O         21.94575       11.54026      109.03785
C         22.05874        7.83557      108.92427
C         20.69887        7.50997      109.49736
O         20.22377        8.13926      110.58881
O         19.99249        6.69084      108.93138
H         20.10003        9.62362      107.91155
H         23.11422        9.36956      107.86001
H         22.86979        7.60199      109.64210
H         22.22011        7.16529      108.04997
N         22.52410       10.18838      110.73602
C         22.58593       11.22693      111.76913
C         21.21812       11.79078      112.13785
O         21.15935       12.66571      112.99084
C         23.58020       12.33772      111.39267
H         22.77793        9.24107      111.04252
H         22.97934       10.75763      112.69899
H         23.69549       13.04757      112.23972
H         24.57603       11.89574      111.17775
H         23.24682       12.92203      110.51277
N         20.07306       11.29908      111.58701
C         18.73160       11.73693      111.93602
C         17.99801       10.57731      112.59762
O         18.65363        9.67255      113.09859
C         18.04618       12.29252      110.66232
C         17.86324       11.27997      109.56109
O         17.06798       10.20899      109.73807
O         18.40366       11.45115      108.48112
H         20.12415       10.53981      110.90159
H         18.75180       12.57025      112.67166
H         18.67177       13.12990      110.28344
H         17.05660       12.72619      110.90813
N         16.63992       10.52785      112.63031
C         15.88643        9.43966      113.21330
C         15.04166        8.75405      112.12761
O         15.76170        7.72090      111.49681
H         16.08854       11.28977      112.21412
H         15.22646        9.89517      113.98439
H         16.51662        8.68287      113.73116
N         13.84474        8.19204      112.76353
C         13.09079        7.19011      111.98298
C         12.22338        7.78346      110.86649
O         11.52429        7.01154      110.22315
C         12.20559        6.39785      112.97057
C         12.97895        5.76091      114.11072
N         12.32096        5.05738      115.05882
O         14.19302        5.88039      114.19277
H         13.21504        8.94514      113.12835
H         13.78420        6.44934      111.52786
H         11.67503        5.58865      112.42275
H         11.44863        7.08504      113.40656
H         11.29839        4.94350      115.01355
H         12.83624        4.63004      115.84314
N         12.19797        9.11864      110.56581
C         11.30516        9.68553      109.55970
C          9.85055        9.61644      110.00130
O          9.58436        9.09276      111.07436
H         12.82260        9.77420      111.05299
H         11.45487        9.16124      108.59069
H         11.56255       10.75103      109.41423
N          8.82150       10.11169      109.25177
C          8.96598       10.77794      107.96159
C          9.28693       12.25217      108.17756
O          8.49038       12.94865      108.79173
C          7.65660       10.61766      107.14446
C          7.76755       11.22630      105.74411
O          7.35619        9.25097      107.00051
H          7.86637        9.98417      109.62356
H          9.76192       10.26919      107.37482
H          6.81981       11.14122      107.66826
H          6.70162        9.01262      107.70843
H          6.80954       11.08334      105.19971
H          7.97692       12.31490      105.79747
H          8.57798       10.72742      105.17072
N         10.44553       12.78741      107.69939
C         10.84161       14.18883      107.87063
C         11.13330       14.82776      106.50887
O         11.75008       14.16204      105.68849
C         12.06656       14.30122      108.83048
C         13.30274       13.49538      108.34160
C         11.63848       13.89532      110.25490
C         14.53992       13.64758      109.22875
H         11.09467       12.15858      107.20376
H         10.04070       14.76269      108.36769
H         12.34519       15.37437      108.88106
H         13.58986       13.84939      107.33068
H         13.06368       12.41380      108.28184
H         10.76983       14.50654      110.58169
H         11.34896       12.82815      110.30139
H         12.44680       14.08236      110.98869
H         14.83614       14.71116      109.31295
H         14.36684       13.23309      110.24186
H         15.38333       13.08400      108.77776
N         10.81074       16.11913      106.17389
C         10.14121       17.09041      107.04384
C         10.45665       18.54374      106.64658
O         11.11892       18.78309      105.64694
C          8.61232       16.83194      107.06117
C          7.99278       16.90750      105.69082
O          7.37665       15.82673      105.17389
O          8.02961       17.94391      105.04717
H         11.13178       16.43990      105.24737
H         10.55532       16.99095      108.06931
H          8.10442       17.55961      107.72801
H          8.39972       15.82491      107.46763
N         10.01626       19.56917      107.43475
C         10.26608       20.98874      107.18139
C         10.98316       21.59933      108.38681
O         10.47143       21.42704      109.48560
C          8.91813       21.72467      107.01109
C          9.14052       23.20432      106.77606
C          8.88933       24.12755      107.80659
C          9.63458       23.67014      105.54478
C          9.14212       25.48855      107.61383
C          9.87308       25.03590      105.35189
C          9.63210       25.94302      106.38742
H          9.47074       19.33201      108.27692
H         10.83615       21.13418      106.24630
H          8.32680       21.57521      107.94160
H          8.32143       21.29984      106.17484
H          8.52303       23.79136      108.76837
H          9.83641       22.97759      104.73729
H          8.96363       26.19017      108.41852
H         10.25225       25.39144      104.40243
H          9.82740       26.99777      106.24133
N         12.10124       22.39220      108.29676
C         12.81589       22.78069      107.08645
C         13.37114       21.59792      106.33411
O         13.13634       21.47944      105.14051
C         13.95941       23.66904      107.60388
C         13.32751       24.30015      108.82244
C         12.63256       23.09700      109.44753
H         12.14233       23.38975      106.44886
H         14.79990       23.04619      107.98570
H         14.36662       24.37720      106.85089
H         14.02807       24.83133      109.50092
H         12.54833       25.01720      108.47308
H         13.35417       22.43177      109.97149
H         11.84916       23.45620      110.15019
N         14.08808       20.65397      107.00154
C         14.62394       19.46715      106.36480
C         15.81811       19.86595      105.51058
O         16.77104       20.39450      106.06609
C         15.05724       18.39068      107.39618
C         13.88968       17.74650      108.18207
C         13.34208       18.48745      109.37839
O         13.87919       19.48789      109.82056
O         12.29117       17.96788      110.04034
H         14.23309       20.78977      108.00441
H         13.82285       18.99665      105.75914
H         15.85392       18.74587      108.08522
H         15.48900       17.56545      106.78634
H         14.25253       16.78509      108.59021
H         13.06964       17.51586      107.47130
N         15.87856       19.66072      104.16430
C         14.82513       19.04066      103.39140
H         13.89446       19.64027      103.45782
H         15.12594       18.98686      102.32362
H         14.63978       18.00859      103.75649
H         16.72803       19.95897      103.65971
Ca        18.02021        7.88708      111.09669
O         19.18459        6.30745      113.73783
H         19.80302        6.88527      114.25163
H         18.36382        6.26816      114.29032
O         19.53535        4.63978      110.97480
H         19.12890        4.09087      110.25777
H         19.51134        4.06039      111.77697
O         16.75751        6.24735      108.81503
H         16.31467        5.36900      108.92701
H         16.01224        6.88923      108.70037
O         16.69305        4.89067      111.93537
H         16.26819        5.41268      112.66035
H         15.99494        4.25112      111.64705

Ca 1.0



