%chk=apoCaM-CA-Ng.loop3.water5.frame457.chk
%nprocshared=20
%mem=10GB
%nosave
#b3lyp/svp scf=(tight,noincore,xqc) Test 
#IOP(5/87=12) Density=Current Pop=(MK,readradii) iop(6/33=2) iop(6/42=6)

apoCaM-CA-Ng.loop3.water5.frame457 

   0  1 
C         65.10224       46.43011       86.05678
C         64.22158       45.29622       86.48747
O         63.67833       45.34086       87.58030
H         66.12949       46.04555       85.87711
H         64.71260       46.87607       85.11850
H         65.15043       47.21458       86.84160
N         64.05803       44.22292       85.66567
C         63.30212       43.02083       86.00246
C         63.93187       42.32807       87.20259
O         63.24264       41.99228       88.15680
C         61.79606       43.32010       86.19365
C         61.19451       43.95621       84.97185
O         60.63563       45.17887       85.05409
O         61.19914       43.36561       83.90339
H         64.53453       44.23545       84.75012
H         63.39978       42.31512       85.14662
H         61.64514       43.99219       87.06432
H         61.25098       42.37321       86.39838
N         65.27612       42.09099       87.20378
C         65.99022       41.38512       88.27015
C         65.91314       42.04784       89.64875
O         66.41583       41.45927       90.59640
C         67.47656       41.20362       87.87080
C         68.27081       42.52888       87.85232
C         69.71232       42.29819       87.38602
C         70.53871       43.58967       87.46601
N         71.90588       43.36218       86.99826
H         65.80797       42.39352       86.37318
H         65.53164       40.37487       88.34995
H         67.51678       40.72554       86.86706
H         67.96680       40.51341       88.59177
H         68.28884       42.95600       88.87874
H         67.79024       43.26782       87.17569
H         69.69820       41.92970       86.33677
H         70.19150       41.52936       88.03027
H         70.56757       43.94274       88.52149
H         70.06581       44.38239       86.84462
H         72.45287       44.24854       87.08987
H         72.36609       42.62012       87.57427
H         71.89627       43.07259       85.99324
N         65.34161       43.27101       89.83942
C         65.29559       43.95717       91.13067
C         64.54860       43.14375       92.18918
O         63.88651       42.16841       91.86145
C         64.68644       45.36613       90.89418
C         64.44625       46.20460       92.11115
O         65.10209       47.35771       92.31632
O         63.55153       45.90501       92.87264
H         64.96250       43.76415       89.02419
H         66.34177       44.07717       91.48875
H         63.70388       45.26445       90.38015
H         65.36842       45.91601       90.20964
N         64.67366       43.47608       93.50913
C         64.03199       42.75502       94.59640
C         62.53012       42.82220       94.48414
O         61.90297       41.77858       94.37167
H         65.28247       44.26712       93.76542
H         64.33400       43.20631       95.56664
H         64.37884       41.69830       94.58991
N         61.88992       44.02821       94.47372
C         60.45003       44.17162       94.28561
C         60.12182       44.70683       92.88940
O         59.30015       45.60405       92.75554
C         59.83572       45.02185       95.42865
C         60.29394       46.47044       95.47102
N         59.80154       47.30347       96.41374
O         61.09547       46.90446       94.65652
H         62.45771       44.87331       94.58110
H         59.97817       43.16663       94.32672
H         60.08413       44.54582       96.40241
H         58.73012       45.01813       95.31833
H         59.11714       46.97242       97.10850
H         60.10477       48.28669       96.44161
N         60.70155       44.14353       91.78903
C         60.33567       44.45478       90.40876
C         60.57324       45.88137       89.92977
O         60.26046       46.14715       88.77678
H         61.39468       43.39390       91.92997
H         59.25956       44.21712       90.27588
H         60.91714       43.78386       89.73848
N         61.12052       46.84470       90.71617
C         61.37471       48.21651       90.27818
C         61.22067       49.13444       91.47419
O         61.84831       48.89256       92.49795
C         62.79334       48.31360       89.69398
C         63.23501       49.73378       89.42117
C         62.64416       50.51491       88.41316
C         64.26176       50.28893       90.20379
C         63.08336       51.82838       88.19461
C         64.68964       51.59777       89.99128
C         64.10436       52.37332       88.98369
O         64.51423       53.63976       88.76940
H         61.42547       46.58653       91.66318
H         60.65625       48.52604       89.48509
H         62.87661       47.70310       88.76889
H         63.47640       47.87700       90.43407
H         61.85362       50.10920       87.79435
H         64.72707       49.71137       90.99161
H         62.63055       52.42536       87.41288
H         65.47588       52.00592       90.61363
H         65.21364       54.04820       89.30054
N         60.41189       50.22393       91.41584
C         60.14978       51.05192       92.58252
C         59.19221       50.28898       93.48390
O         59.47633       50.14903       94.66287
C         59.63014       52.46403       92.18122
C         60.61196       53.19852       91.21686
C         59.38039       53.34476       93.42550
C         62.02012       53.45301       91.77725
H         59.93568       50.44702       90.52724
H         61.09605       51.23659       93.13470
H         58.66227       52.34854       91.64491
H         60.17111       54.18087       90.94047
H         60.72301       52.61731       90.27800
H         60.30395       53.47969       94.02387
H         58.99959       54.34258       93.11964
H         58.63414       52.89937       94.10280
H         62.54026       52.50067       91.99845
H         62.62592       53.99538       91.02256
H         61.99297       54.08002       92.69114
N         58.06303       49.70588       92.97376
C         57.14907       48.92144       93.80566
C         56.37010       49.79248       94.77804
O         55.71103       49.24586       95.65367
C         56.17253       48.11008       92.94226
O         55.36330       48.96775       92.18532
H         57.88417       49.77551       91.96103
H         57.76070       48.18985       94.38066
H         55.53711       47.48023       93.60641
H         56.75756       47.44705       92.26632
H         54.75087       48.38150       91.67002
N         56.40283       51.15311       94.69142
C         55.75781       52.06569       95.61815
C         56.22484       51.78880       97.03595
O         55.40567       51.65057       97.93188
C         54.23177       52.01023       95.46367
H         56.93630       51.59230       93.93270
H         56.07684       53.09772       95.34731
H         53.83712       51.01017       95.73770
H         53.75416       52.77460       96.11250
H         53.95443       52.22472       94.40934
N         57.55881       51.65886       97.29054
C         58.09680       51.37137       98.61143
C         59.05341       52.46946       98.99032
O         60.01528       52.69885       98.27119
C         58.81223       50.02166       98.61531
H         58.22467       51.75067       96.50860
H         57.28337       51.30560       99.36555
H         59.20637       49.80830       99.63296
H         58.09940       49.21503       98.34076
H         59.65821       50.02326       97.89873
N         58.82699       53.20956      100.11113
C         59.65766       54.32697      100.53135
C         59.61658       55.40034       99.45295
O         60.65348       55.81484       98.95181
C         61.08100       53.82832      100.88724
C         61.91080       54.86890      101.65058
C         63.28931       54.33828      101.92758
O         64.27007       54.92914      101.50448
O         63.45155       53.20731      102.64146
H         58.00360       52.99169      100.69168
H         59.20123       54.74385      101.45706
H         61.61929       53.51894       99.96548
H         60.98499       52.93478      101.54350
H         61.41166       55.09894      102.61674
H         61.99299       55.80898      101.06735
N         58.40912       55.85364       99.01168
C         58.25355       56.82492       97.94826
H         57.67161       57.69162       98.32352
H         59.22738       57.19198       97.56217
H         57.69890       56.35780       97.10654
H         57.54693       55.46900       99.42776
Ca        64.33573       48.55203       94.07707
O         64.41051       48.82776       97.19771
H         64.63433       49.57569       97.80614
H         64.00979       48.13898       97.78519
O         64.88493       46.02435       95.74613
H         65.59338       46.50114       96.24667
H         64.15232       45.90127       96.40058
O         66.97372       49.34468       94.90418
H         67.22214       48.60355       94.29599
H         67.07851       48.96651       95.81295
O         62.12402       50.31626       95.94789
H         61.84114       51.10727       95.42544
H         62.30200       50.67453       96.85304
O         64.44105       51.40546       93.50518
H         63.92911       51.77608       94.26662
H         65.38906       51.50406       93.77154

Ca 1.0



