%chk=apoCaM-CA-Ng.loop1.water4.frame168.chk
%nprocshared=20
%mem=10GB
%nosave
#b3lyp/svp scf=(tight,noincore,xqc) Test 
#IOP(5/87=12) Density=Current Pop=(MK,readradii) iop(6/33=2) iop(6/42=6)

apoCaM-CA-Ng.loop1.water4.frame168 

   0  1 
C         90.62045       49.64540       36.26469
C         91.57116       49.68816       35.10651
O         91.34676       49.00040       34.12094
H         89.77721       48.95253       36.05871
H         91.16023       49.29348       37.16899
H         90.21416       50.66087       36.45506
N         92.66998       50.48857       35.16852
C         93.66652       50.57666       34.10734
C         95.05004       50.14486       34.59479
O         95.97839       50.21319       33.80724
C         93.66456       51.99530       33.48733
C         94.07307       53.10830       34.41319
O         95.03124       53.80662       34.12748
O         93.35452       53.39076       35.51649
H         92.80619       51.05732       36.01720
H         93.40094       49.89366       33.27096
H         92.64493       52.21992       33.10540
H         94.35072       51.99452       32.61165
N         95.26428       49.64021       35.84686
C         96.57315       49.22566       36.35224
C         96.57503       47.72153       36.60054
O         95.64874       47.26477       37.25797
C         96.86570       49.91904       37.69795
C         96.88962       51.45448       37.68487
C         97.93698       52.04828       36.73074
C         98.20678       53.54045       37.00559
N         97.00889       54.37265       36.89784
H         94.46478       49.51522       36.48456
H         97.38038       49.50821       35.65961
H         97.85448       49.56407       38.06390
H         96.10093       49.60821       38.44399
H         97.13857       51.76366       38.72355
H         95.88213       51.85079       37.43389
H         97.60943       51.89905       35.67885
H         98.90530       51.52215       36.87466
H         98.96816       53.89857       36.27774
H         98.63398       53.65208       38.02686
H         97.27582       55.37155       37.05344
H         96.59617       54.28061       35.94623
H         96.30628       54.10965       37.62535
N         97.56002       46.85571       36.20070
C         98.79341       47.15152       35.47298
C         99.67958       48.16048       36.19296
O         99.97224       49.19997       35.61834
C         98.53227       47.52739       33.99161
C         97.90063       46.42356       33.19352
O         97.68943       46.59879       32.00475
O         97.59229       45.23770       33.75559
H         97.44346       45.86858       36.48073
H         99.39289       46.22257       35.42820
H         99.51003       47.74439       33.50753
H         97.90211       48.42753       33.89727
N        100.21736       47.93921       37.42757
C         99.98595       46.75724       38.25188
C        100.77659       46.88660       39.55220
O        100.65253       47.93457       40.17062
H        100.84157       48.67634       37.79351
H        100.26596       45.85830       37.67381
H         98.90633       46.70425       38.50202
N        101.63167       45.94341       40.05926
C        101.78593       44.56259       39.60651
C        103.13439       44.33077       38.94764
O        103.93215       45.25306       38.84303
C        101.55112       43.61234       40.80808
C        102.55953       43.78720       41.91675
O        102.15425       44.17765       43.14019
O        103.74357       43.56390       41.71947
H        102.18434       46.21788       40.88716
H        101.02099       44.30789       38.85110
H        101.57428       42.55237       40.48039
H        100.53416       43.80909       41.21227
N        103.43018       43.10251       38.42881
C        104.64534       42.80643       37.68590
C        104.68675       43.46208       36.31269
O        105.64147       43.21821       35.58943
H        102.75786       42.33107       38.55348
H        104.68343       41.70888       37.50801
H        105.53594       43.08298       38.29023
N        103.68683       44.28114       35.87451
C        103.61931       44.88682       34.55348
C        103.75083       46.39786       34.68962
O        103.07948       46.99381       35.52082
C        102.30011       44.43977       33.87693
C        102.10676       45.06486       32.49576
O        101.20327       44.76267       34.68808
H        102.89570       44.49303       36.49256
H        104.44820       44.52528       33.90495
H        102.36391       43.33150       33.76317
H        100.44684       44.19252       34.39140
H        102.98259       44.86217       31.84382
H        101.19951       44.64492       32.01748
H        101.94991       46.15447       32.60198
N        104.60314       47.07675       33.86702
C        104.86261       48.51557       33.94558
C        104.20148       49.29288       32.81081
O        104.34860       50.50772       32.78952
C        106.40089       48.80167       33.92682
C        107.06962       48.27128       32.62223
C        107.08426       48.24056       35.18317
C        108.47959       48.80798       32.38703
H        105.06411       46.54191       33.11805
H        104.42972       48.93163       34.88277
H        106.52550       49.90750       33.95529
H        106.47431       48.59104       31.74103
H        107.10932       47.16150       32.62491
H        106.61072       48.66592       36.09327
H        107.00394       47.13385       35.21937
H        108.15667       48.52255       35.20999
H        108.86372       48.40509       31.42495
H        108.45449       49.91610       32.31467
H        109.17688       48.50149       33.19046
N        103.46606       48.68185       31.84020
C        102.87998       49.38869       30.70756
C        101.36465       49.38237       30.80888
O        100.77230       48.34790       31.08291
C        103.41603       48.82532       29.36929
C        103.03903       47.36581       29.09878
O        104.81703       48.93261       29.34289
H        103.32085       47.66978       31.88869
H        103.19792       50.45450       30.71330
H        102.98673       49.42659       28.53406
H        105.03436       49.89716       29.24795
H        103.45061       47.06052       28.11341
H        103.46215       46.68826       29.86786
H        101.93787       47.24176       29.06137
N        100.68046       50.54520       30.61554
C         99.24798       50.71729       30.83263
C         98.53267       50.97263       29.51345
O         99.17612       51.05828       28.47587
C         99.08137       51.90001       31.83806
C         99.66945       51.55181       33.21274
O         97.75243       52.31925       31.98800
H        101.20960       51.38033       30.31864
H         98.79370       49.79200       31.25276
H         99.63694       52.77611       31.43777
H         97.26047       51.58211       32.41973
H         99.12336       50.68736       33.64534
H        100.74562       51.29236       33.13464
H         99.56358       52.41738       33.89927
N         97.17241       51.08649       29.49348
C         96.38405       51.33842       28.29839
C         95.26876       50.30856       28.16841
O         94.24519       50.60598       27.56692
C         95.88313       52.79894       28.33568
C         94.92798       53.13724       29.50230
C         94.60505       54.64115       29.55869
C         95.79943       55.48077       30.05732
N         95.48732       56.90845       30.03333
H         96.64991       50.99450       30.37280
H         97.01670       51.26626       27.38630
H         95.37257       53.04426       27.37831
H         96.79442       53.42577       28.39385
H         95.34589       52.83724       30.48468
H         93.98306       52.57436       29.34511
H         93.76751       54.79798       30.27318
H         94.27083       54.98299       28.55495
H         96.70056       55.31770       29.43351
H         96.04498       55.17246       31.09915
H         94.63704       57.10904       30.60725
H         96.29776       57.44076       30.42569
H         95.33132       57.21686       29.04589
N         95.42882       49.04356       28.66039
C         94.40485       48.01321       28.54317
C         93.20409       48.36232       29.40378
O         93.34360       48.46154       30.61520
C         95.00830       46.62618       28.87845
C         93.99442       45.48248       28.70786
C         94.66860       44.14890       28.48572
O         95.48805       43.58578       29.39464
O         94.47354       43.55758       27.43575
H         96.32582       48.79148       29.10240
H         94.09767       47.95647       27.47487
H         95.44695       46.59597       29.90002
H         95.83286       46.47880       28.14630
H         93.38305       45.68359       27.80144
H         93.30809       45.44803       29.58219
N         91.98732       48.57248       28.82308
C         90.78925       48.92264       29.56015
H         90.00921       48.15282       29.38104
H         90.96748       48.99673       30.65317
H         90.40968       49.90203       29.19891
H         91.89670       48.48671       27.79958
Ca        95.98374       44.40369       31.42201
O         93.97818       41.89648       31.82664
H         93.73228       42.66327       31.25050
H         94.65783       41.40034       31.30446
O         99.07561       42.07383       33.19770
H         98.89096       41.88369       34.15184
H        100.03161       41.84401       33.07965
O         94.26532       45.01628       33.68794
H         94.56102       45.89550       33.34057
H         94.60838       44.98777       34.61594
O         99.07511       44.05509       30.50752
H         99.12621       43.39144       29.77474
H         99.21677       44.92864       30.06315

Ca 1.0



