%chk=apoCaM-CA-Ng.loop1.water1.frame871.chk
%nprocshared=20
%mem=10GB
%nosave
#b3lyp/svp scf=(tight,noincore,xqc) Test 
#IOP(5/87=12) Density=Current Pop=(MK,readradii) iop(6/33=2) iop(6/42=6)

apoCaM-CA-Ng.loop1.water1.frame871 

   0  1 
C         53.49070       -5.43785       18.82553
C         51.99891       -5.54424       18.99250
O         51.32560       -6.10806       18.14300
H         53.83312       -5.92220       17.88835
H         53.77938       -4.36360       18.79460
H         54.00188       -5.91231       19.68997
N         51.42270       -4.97930       20.08509
C         49.98119       -4.93246       20.35707
C         49.20159       -4.33323       19.18362
O         49.50933       -3.24062       18.73341
C         49.69611       -4.19086       21.69684
C         50.61060       -3.00195       21.93390
O         50.66792       -1.99352       21.04568
O         51.39896       -3.02737       22.86623
H         52.07522       -4.53756       20.74770
H         49.60570       -5.97087       20.49129
H         49.89497       -4.91475       22.51849
H         48.61885       -3.91944       21.76141
N         48.19249       -5.05982       18.61186
C         47.48539       -4.67728       17.38954
C         46.66955       -3.39050       17.45197
O         46.32208       -2.92176       16.37469
C         46.62107       -5.85610       16.85474
C         45.49999       -6.34376       17.80523
C         44.83581       -7.61809       17.24463
C         43.87753       -8.30983       18.23332
N         42.70022       -7.50210       18.54761
H         47.99452       -5.98619       19.01362
H         48.27473       -4.49920       16.62445
H         47.31467       -6.70681       16.67558
H         46.17224       -5.58237       15.87373
H         44.74740       -5.54107       17.95746
H         45.93255       -6.60663       18.79035
H         45.63728       -8.35854       17.02857
H         44.30999       -7.39265       16.29147
H         44.42311       -8.56066       19.17063
H         43.53968       -9.26735       17.77656
H         42.97633       -6.61771       19.02916
H         42.16856       -7.28883       17.67300
H         42.08200       -8.04899       19.19073
N         46.28963       -2.76076       18.60878
C         45.51685       -1.51318       18.54309
C         46.36633       -0.36079       18.01653
O         47.57667       -0.41928       18.15758
C         44.72215       -1.17604       19.82680
C         45.38566       -1.07879       21.17447
O         44.66735       -0.87203       22.13869
O         46.68450       -1.30142       21.41632
H         46.50558       -3.18999       19.51979
H         44.71480       -1.69506       17.79486
H         43.96634       -1.98223       19.94576
H         44.17254       -0.22559       19.66336
N         45.86262        0.67036       17.27481
C         44.47390        0.86007       16.88691
C         44.29501        0.49725       15.43350
O         45.22765       -0.01274       14.82291
H         46.53823        1.34183       16.87505
H         44.20512        1.92446       17.06022
H         43.76838        0.24424       17.47445
N         43.10562        0.71141       14.80654
C         42.88050        0.28566       13.42803
C         41.86680        1.15197       12.70524
O         41.28737        2.05413       13.29790
C         42.51933       -1.21488       13.40121
C         41.25808       -1.51740       14.16497
O         40.19075       -1.04053       13.81343
O         41.30114       -2.32978       15.23812
H         42.34023        1.15813       15.33639
H         43.82167        0.43514       12.85175
H         43.35768       -1.78648       13.85500
H         42.40556       -1.57222       12.35675
N         41.65010        0.95849       11.37311
C         40.78236        1.80761       10.57873
C         41.32464        3.21503       10.40249
O         40.65289        4.00069        9.74981
H         42.13204        0.18504       10.88961
H         39.76983        1.83109       11.03472
H         40.69033        1.37247        9.55895
N         42.53815        3.59899       10.90471
C         43.11801        4.91838       10.68953
C         43.40894        5.62485       12.00620
O         43.29284        5.02902       13.06830
C         44.40931        4.78299        9.83383
C         45.48399        3.88538       10.48067
O         44.06832        4.25821        8.57711
H         43.10801        2.92823       11.43207
H         42.40522        5.56513       10.13294
H         44.83388        5.80305        9.69483
H         44.82069        4.46664        7.96311
H         45.13952        2.83400       10.56270
H         46.39891        3.88310        9.85180
H         45.75898        4.24571       11.49249
N         43.81242        6.92681       11.97912
C         44.25518        7.68919       13.14364
C         43.29824        8.85499       13.38420
O         42.80912        9.00003       14.49581
C         45.72117        8.17186       12.91304
C         46.62343        6.97939       12.48718
C         46.26754        8.84700       14.18652
C         48.05443        7.36650       12.11783
H         43.85576        7.39299       11.06129
H         44.25839        7.04330       14.05139
H         45.72337        8.91152       12.08177
H         46.20329        6.52717       11.56864
H         46.64155        6.20307       13.28307
H         45.63062        9.70416       14.48617
H         46.30204        8.11806       15.02558
H         47.28804        9.24695       14.02281
H         48.58969        6.46426       11.75067
H         48.04796        8.12378       11.30515
H         48.61083        7.75718       12.99174
N         42.93136        9.67769       12.35774
C         41.93578       10.74350       12.46062
C         42.42096       11.96087       11.68916
O         42.83731       11.81559       10.54731
C         40.58270       10.25572       11.89426
C         39.99321        9.13963       12.77085
O         39.67720       11.33035       11.87413
H         43.29684        9.47344       11.41709
H         41.74913       11.02864       13.52085
H         40.74381        9.88052       10.85643
H         38.95637       11.08747       11.23576
H         40.66347        8.25707       12.80762
H         39.83241        9.51272       13.80709
H         39.01368        8.81214       12.36514
N         42.34783       13.20461       12.24181
C         42.84943       14.40878       11.58845
C         43.83463       15.08173       12.52328
O         45.00416       15.18619       12.18109
C         41.67991       15.34334       11.16015
C         42.19571       16.65471       10.54417
O         40.83588       15.63173       12.24443
H         41.91396       13.30294       13.17229
H         43.39315       14.14454       10.65269
H         41.09146       14.79118       10.39086
H         40.00865       16.03547       11.87170
H         42.84937       16.44585        9.67166
H         41.34186       17.27810       10.20362
H         42.76888       17.24297       11.29321
N         43.41215       15.58530       13.71595
C         44.26898       16.27204       14.66485
C         44.09110       15.64799       16.03630
O         42.98354       15.63383       16.55523
C         43.97662       17.78621       14.64781
C         42.50002       18.17722       14.82922
C         42.34510       19.69897       14.77465
C         40.87225       20.10971       14.87793
N         40.73961       21.56544       14.85648
H         42.41816       15.50421       13.96533
H         45.33620       16.17826       14.36516
H         44.29808       18.17234       13.65433
H         44.60355       18.27792       15.42360
H         42.11226       17.81222       15.80166
H         41.89677       17.73338       14.00786
H         42.75586       20.08040       13.81357
H         42.91784       20.15083       15.61378
H         40.43758       19.71537       15.82308
H         40.30692       19.67558       14.02248
H         41.23868       21.98064       15.67671
H         41.13833       21.95099       13.96956
H         39.72695       21.81847       14.91200
N         45.15427       15.07706       16.66539
C         45.07271       14.42353       17.96438
C         45.25656       12.90906       17.83182
O         44.32918       12.21558       18.22673
C         46.05116       15.06957       18.96566
C         45.66371       16.52046       19.29265
C         46.64940       17.13508       20.24548
O         47.81885       17.26629       19.91979
O         46.24643       17.55477       21.46002
H         46.06465       15.11256       16.19471
H         44.05600       14.55974       18.40104
H         47.07911       15.05880       18.56169
H         46.03479       14.48945       19.91507
H         44.65186       16.53033       19.75515
H         45.63434       17.13570       18.36824
N         46.34839       12.26464       17.31527
C         47.53713       12.87376       16.75921
H         48.24061       12.07717       16.43736
H         47.29833       13.45255       15.84934
H         48.06593       13.48484       17.51077
H         46.32613       11.23254       17.30621
Ca        48.68295       -1.21245       20.46567
O         50.63776       -1.13030       16.84868
H         51.42210       -1.73436       16.82299
H         51.01798       -0.23753       17.04559

Ca 1.0



