%chk=apoCaM-CA-Ng.loop3.water5.frame34.chk
%nprocshared=20
%mem=10GB
%nosave
#b3lyp/svp scf=(tight,noincore,xqc) Test 
#IOP(5/87=12) Density=Current Pop=(MK,readradii) iop(6/33=2) iop(6/42=6)

apoCaM-CA-Ng.loop3.water5.frame34 

   0  1 
C         63.82979       94.81604       56.39880
C         64.09237       96.10687       57.11678
O         64.73027       96.97475       56.54080
H         63.25884       95.01509       55.46775
H         64.79468       94.33663       56.13476
H         63.25110       94.11075       57.03018
N         63.64076       96.30278       58.39080
C         63.86524       97.52738       59.15755
C         65.35049       97.77101       59.41783
O         65.72257       98.90735       59.67880
C         63.19740       98.74278       58.46431
C         61.73611       98.50083       58.20494
O         60.89897       98.24469       59.22814
O         61.30130       98.53800       57.06463
H         63.10742       95.54866       58.84882
H         63.37923       97.41900       60.15207
H         63.70638       98.97559       57.50503
H         63.29025       99.63935       59.11459
N         66.25898       96.75023       59.35570
C         67.70111       96.94871       59.48358
C         68.41052       96.66484       58.17268
O         69.58054       97.00595       58.05919
C         68.28524       96.04151       60.57518
C         67.73111       96.36669       61.96602
C         68.27152       95.41753       63.05138
C         69.80773       95.37181       63.18224
N         70.38579       96.68634       63.46399
H         65.92305       95.79192       59.18150
H         67.92142       98.01176       59.72597
H         69.38647       96.18245       60.58701
H         68.06733       94.97975       60.32194
H         66.62353       96.27235       61.95661
H         67.97767       97.41887       62.22237
H         67.91715       94.38602       62.83385
H         67.83549       95.72684       64.02554
H         70.26530       94.95388       62.25954
H         70.06204       94.67581       64.01161
H         70.24119       97.33231       62.65544
H         69.95873       97.09203       64.32750
H         71.41532       96.57839       63.61066
N         67.77934       96.05157       57.13344
C         68.39454       95.87488       55.83467
C         68.57653       97.23984       55.20533
O         67.65416       98.04165       55.26983
C         67.47692       95.01538       54.93332
C         68.13940       94.60716       53.64705
O         67.51549       93.95746       52.82478
O         69.42949       94.91137       53.41431
H         66.82287       95.70127       57.24748
H         69.35681       95.32713       55.95270
H         66.53929       95.57221       54.71378
H         67.21116       94.07649       55.46498
N         69.70778       97.55559       54.52378
C         69.85750       98.80357       53.80138
C         68.73190       99.00122       52.80478
O         68.08438      100.03812       52.84309
H         70.47337       96.86877       54.46359
H         70.82349       98.78271       53.25122
H         69.88729       99.65406       54.51628
N         68.45211       98.04763       51.87103
C         67.45442       98.24514       50.81807
C         66.00683       98.26382       51.32603
O         65.13125       98.59012       50.53587
C         67.59231       97.18738       49.69909
C         68.97561       97.16910       49.07514
N         69.16289       97.54766       47.79042
O         69.93896       96.80396       49.73110
H         69.02202       97.19057       51.87950
H         67.66631       99.23224       50.34800
H         66.84903       97.43364       48.90971
H         67.34812       96.17664       50.08888
H         68.37612       97.87148       47.21149
H         70.10822       97.53269       47.37858
N         65.66703       97.93996       52.60889
C         64.30271       98.01359       53.11687
C         63.39204       97.00749       52.45083
O         63.63041       95.81523       52.58027
H         66.39828       97.65556       53.26679
H         63.92742       99.05113       52.98074
H         64.29669       97.80273       54.20416
N         62.32572       97.43688       51.71234
C         61.37450       96.60211       50.97454
C         61.97764       95.88502       49.76840
O         61.18882       95.41853       48.96077
C         60.61075       95.62565       51.90967
C         59.52641       94.83312       51.20103
C         58.44051       95.48602       50.59015
C         59.59524       93.42826       51.14201
C         57.45002       94.74999       49.92992
C         58.60302       92.69514       50.48218
C         57.52671       93.35473       49.87274
O         56.56325       92.66119       49.23210
H         62.16313       98.45447       51.66058
H         60.63117       97.31055       50.54391
H         60.13867       96.20235       52.73369
H         61.33683       94.92116       52.36546
H         58.35965       96.56456       50.62134
H         60.41827       92.89645       51.60245
H         56.62094       95.26528       49.46094
H         58.67227       91.61486       50.44428
H         56.57703       91.69518       49.16995
N         63.32581       95.75759       49.55807
C         63.95120       95.12236       48.40153
C         64.19060       96.16915       47.32643
O         65.32594       96.29312       46.88590
C         63.27850       93.79168       47.91523
C         63.10948       92.80499       49.10551
C         64.12784       93.15112       46.80237
C         62.43146       91.48399       48.73179
H         63.99012       96.14625       50.23081
H         64.96825       94.80242       48.73286
H         62.28508       94.00334       47.47071
H         62.47613       93.27331       49.88539
H         64.09907       92.58302       49.56082
H         63.64957       92.23955       46.39394
H         64.21719       93.84427       45.95284
H         65.14370       92.89588       47.17388
H         63.05647       90.88927       48.03548
H         62.28906       90.87206       49.64723
H         61.43821       91.67347       48.27264
N         63.20202       97.01587       46.90581
C         63.46151       98.06035       45.91836
C         63.65590       97.48013       44.53130
O         64.10147       98.21270       43.65704
C         62.34534       99.11028       45.90234
O         62.23358       99.68748       47.17449
H         62.26852       96.95964       47.33196
H         64.39570       98.58805       46.22036
H         61.38248       98.63319       45.61679
H         62.61020       99.90047       45.16171
H         61.59345      100.43963       47.08305
N         63.38037       96.16859       44.25859
C         63.70325       95.51295       43.00373
C         65.19353       95.63874       42.78158
O         65.63087       96.14845       41.76064
C         62.85877       96.05554       41.84156
H         62.97947       95.56760       44.99193
H         63.45937       94.43090       43.10172
H         63.08661       95.48513       40.91531
H         61.77979       95.92682       42.07132
H         63.05878       97.12896       41.65097
N         66.03736       95.19952       43.75774
C         67.47805       95.34655       43.66702
C         68.20869       94.41944       44.61714
O         67.61735       93.81861       45.50191
C         67.87435       96.79806       43.97386
H         65.63038       94.74996       44.58373
H         67.78693       95.04825       42.64170
H         68.97290       96.93826       43.89421
H         67.37750       97.50506       43.27934
H         67.56486       97.05716       45.01127
N         69.54001       94.22504       44.41455
C         70.39412       93.35590       45.20514
C         69.81388       91.94292       45.27208
O         69.71603       91.37653       46.35359
C         70.60326       93.98150       46.59787
C         71.89997       93.50928       47.27044
C         71.90435       93.99361       48.68197
O         70.96955       93.50188       49.51058
O         72.70009       94.83543       49.06734
H         69.98323       94.70430       43.61644
H         71.37393       93.33281       44.67785
H         69.70142       93.77990       47.21963
H         70.69066       95.08702       46.50439
H         72.76146       93.92590       46.70205
H         71.98343       92.40342       47.28671
N         69.32404       91.34974       44.14667
C         68.66072       90.05931       44.14981
H         67.60286       90.19145       43.83499
H         69.16568       89.37913       43.43488
H         68.65978       89.58093       45.15234
H         69.36936       91.85590       43.24964
Ca        70.44468       94.31182       51.51980
O         68.20086       93.11423       49.57175
H         67.99054       94.03616       49.28019
H         67.63880       92.97004       50.37269
O         72.41975       96.71064       51.97467
H         72.69966       97.50443       51.45341
H         72.78326       96.86834       52.88197
O         70.73497       91.54427       52.78590
H         71.06059       91.21580       53.66124
H         69.75166       91.59852       52.89027
O         72.20393       94.38737       54.47242
H         71.64466       93.82601       55.06579
H         72.35835       95.21843       54.98769
O         73.69412       93.66042       51.79885
H         74.34177       93.27747       51.15537
H         74.18913       93.69875       52.65533

Ca 1.0



