%chk=apoCaM-CA-Ng.loop2.water4.frame440.chk
%nprocshared=20
%mem=10GB
%nosave
#b3lyp/svp scf=(tight,noincore,xqc) Test 
#IOP(5/87=12) Density=Current Pop=(MK,readradii) iop(6/33=2) iop(6/42=6)

apoCaM-CA-Ng.loop2.water4.frame440 

   -2  1 
C        111.80880       90.35197       61.08490
C        113.05026       91.13660       60.75171
O        113.84582       91.39629       61.64255
H        111.16555       90.20746       60.19075
H        112.09118       89.35273       61.47743
H        111.21270       90.88180       61.85460
N        113.29735       91.52119       59.46929
C        114.49289       92.25652       59.06497
C        114.44944       93.67777       59.59796
O        113.47300       94.36885       59.33960
C        114.59416       92.26285       57.52483
C        115.87901       92.87821       57.03648
O        116.12199       94.05693       57.24039
O        116.76680       92.12639       56.35818
H        112.62094       91.24070       58.74147
H        115.39204       91.71610       59.43690
H        113.72806       92.79378       57.07266
H        114.56790       91.20602       57.17817
N        115.49586       94.20488       60.30415
C        115.47864       95.58613       60.78892
C        114.41281       95.75947       61.85336
O        113.86582       94.75917       62.29464
C        116.85310       95.99146       61.32941
H        116.33303       93.62260       60.46006
H        115.24422       96.24873       59.92550
H        117.14151       95.34865       62.18799
H        117.61503       95.87987       60.52763
H        116.84912       97.05321       61.65481
N        114.02264       96.99727       62.27972
C        112.89708       97.18167       63.19112
C        113.29907       97.95923       64.43162
O        113.73454       99.09857       64.31997
C        111.74501       97.87651       62.44484
C        110.48580       97.90078       63.26882
O        109.96953       96.85452       63.63126
O        109.91244       99.07314       63.59714
H        114.48080       97.83368       61.88394
H        112.50688       96.19276       63.50764
H        111.52396       97.31207       61.51284
H        112.04338       98.90921       62.16009
N        113.13852       97.39741       65.66185
C        113.41925       98.11942       66.89698
C        113.21704       97.33446       68.19642
O        113.30592       97.96781       69.23769
H        112.76165       96.44678       65.67963
H        112.73884       99.00060       66.92616
H        114.46594       98.49297       66.88718
N        112.95584       95.98913       68.24491
C        112.70775       95.24660       69.47642
C        113.73490       94.13243       69.63092
O        113.88683       93.31615       68.73461
C        111.28830       94.65748       69.43246
C        110.23973       95.74422       69.42358
N        109.37864       95.87482       68.38782
O        110.16435       96.51325       70.37054
H        112.91241       95.42691       67.39099
H        112.76427       95.90919       70.36799
H        111.11915       94.02507       70.33006
H        111.18973       94.01583       68.53289
H        109.42269       95.24096       67.57730
H        108.66438       96.61844       68.39577
N        114.48181       94.05196       70.76603
C        115.51709       93.05868       71.00800
C        114.99910       91.64090       71.14684
O        114.09556       91.41539       71.93979
H        114.33504       94.75872       71.50252
H        115.98860       93.30319       71.98449
H        116.30781       93.13176       70.23152
N        115.62207       90.61193       70.49532
C        115.30998       89.20465       70.75589
C        113.89718       88.87036       70.31872
O        113.10281       88.46275       71.15468
C        116.38957       88.23356       70.17844
C        116.53733       88.17623       68.64881
O        117.63685       88.50394       70.77256
H        116.40922       90.84205       69.87220
H        115.36951       89.04482       71.85720
H        116.11011       87.20371       70.49266
H        118.01840       89.31473       70.34642
H        115.62387       87.77075       68.17825
H        116.77600       89.17336       68.22447
H        117.35923       87.47702       68.38463
N        113.50549       89.05989       69.03069
C        112.14112       88.84820       68.55571
C        111.59374       90.17472       68.06679
O        112.34194       91.14179       68.02375
C        112.10150       87.74056       67.44825
C        112.98492       88.09305       66.21470
C        112.49596       86.38569       68.06524
C        112.92691       87.06218       65.08273
H        114.19214       89.43733       68.36303
H        111.48123       88.52316       69.38961
H        111.05043       87.63962       67.09854
H        114.04795       88.19520       66.50807
H        112.64607       89.06424       65.79557
H        112.36759       85.55808       67.33859
H        113.54901       86.39638       68.41532
H        111.83487       86.15456       68.92727
H        113.33929       86.08357       65.40382
H        111.88453       86.92828       64.72657
H        113.55097       87.41386       64.23320
N        110.30188       90.29600       67.65179
C        109.81189       91.51777       67.03250
C        108.55787       92.04782       67.73142
O        107.53001       92.17974       67.08672
C        109.62272       91.20143       65.53126
C        109.32598       92.40335       64.68845
O        109.15774       92.26863       63.36034
O        109.21618       93.51164       65.19087
H        109.67802       89.47501       67.68600
H        110.57715       92.31919       67.08667
H        108.81411       90.44930       65.40598
H        110.56630       90.76123       65.14114
N        108.57544       92.40610       69.05107
C        107.40050       92.95536       69.74359
C        106.26265       91.93120       69.70574
O        106.55597       90.76722       69.94661
C        107.74566       93.29933       71.21904
C        106.63573       94.09027       71.88222
C        106.39599       95.42561       71.50047
C        105.82132       93.50783       72.86873
C        105.34544       96.15014       72.07362
C        104.76998       94.23735       73.43820
C        104.52920       95.55436       73.03717
H        109.45648       92.29075       69.57506
H        107.11618       93.89761       69.23035
H        108.67061       93.91283       71.28082
H        107.94243       92.35062       71.76494
H        107.01218       95.89967       70.74643
H        105.98274       92.48434       73.18051
H        105.15809       97.17085       71.76404
H        104.13330       93.77864       74.18365
H        103.70950       96.11311       73.47179
N        104.95109       92.24105       69.42793
C        103.89259       91.23707       69.40796
C        103.85724       90.45888       68.10331
O        103.10530       89.50099       67.99540
C        102.59608       92.06283       69.51466
C        103.08048       93.36793       70.13063
C        104.37653       93.56277       69.35777
H        104.01377       90.59830       70.31203
H        102.24369       92.34014       68.49242
H        101.75878       91.54839       70.03219
H        102.35768       94.20592       70.04006
H        103.31996       93.19774       71.20312
H        104.12950       93.78872       68.29524
H        105.00407       94.37719       69.72998
N        104.54418       90.92538       67.02196
C        104.43864       90.38011       65.67970
C        104.96284       88.96207       65.64222
O        104.22200       88.07212       65.24672
C        105.18955       91.29558       64.68192
C        104.52283       92.69167       64.57311
C        105.29916       93.56681       63.63843
O        106.52567       93.97382       63.99765
O        104.84349       93.88406       62.55212
H        105.12373       91.76354       67.13643
H        103.36990       90.37334       65.36703
H        105.16721       90.83018       63.67186
H        106.25378       91.39060       64.98786
H        104.46490       93.21134       65.55287
H        103.48967       92.55513       64.18949
N        106.22360       88.66734       66.05939
C        106.73347       87.31324       66.04403
H        107.76638       87.29023       66.45066
H        106.08989       86.65809       66.67037
H        106.74846       86.92615       65.00287
H        106.83268       89.41897       66.41453
Ca       108.20159       94.10393       62.52556
O        111.61155       93.33390       62.65194
H        111.35698       94.14570       63.15633
H        112.15798       92.80785       63.28856
O        110.31580       94.63458       60.26056
H        110.30076       93.87759       59.62255
H        110.97501       95.26851       59.88208
O        107.07211       92.40841       60.26583
H        107.77216       91.76165       60.53385
H        106.41616       92.38003       61.00638
O        107.71645       96.28909       60.53636
H        107.29193       97.03128       61.03524
H        106.99737       95.61600       60.43230

Ca 1.0



