%chk=apoCaM-CA-Ng.loop2.water5.frame1178.chk
%nprocshared=20
%mem=10GB
%nosave
#b3lyp/svp scf=(tight,noincore,xqc) Test 
#IOP(5/87=12) Density=Current Pop=(MK,readradii) iop(6/33=2) iop(6/42=6)

apoCaM-CA-Ng.loop2.water5.frame1178 

   -2  1 
C        116.52224       59.35279       11.98523
C        115.26661       59.34248       12.80932
O        114.34508       58.63007       12.43652
H        117.39337       58.98881       12.55426
H        116.40442       58.67767       11.11000
H        116.71085       60.37864       11.60904
N        115.08825       60.11420       13.92032
C        116.08782       60.99923       14.53576
C        115.39680       62.02217       15.45911
O        114.17516       62.09609       15.46217
C        117.18073       60.17167       15.27226
C        116.57886       59.29108       16.31774
O        116.85814       59.47014       17.61687
O        115.77591       58.42882       15.99860
H        114.15586       60.05065       14.35866
H        116.58201       61.61052       13.75023
H        117.92899       60.84790       15.73246
H        117.74758       59.53203       14.57612
N        116.12014       62.88626       16.23552
C        115.54371       63.99884       16.99401
C        114.49768       63.62653       18.05305
O        113.95279       64.55359       18.63752
C        114.95746       65.02438       16.00771
H        117.14668       62.81262       16.24511
H        116.37146       64.52210       17.52365
H        115.73844       65.33600       15.28104
H        114.09541       64.60909       15.44697
H        114.61654       65.93438       16.54638
N        114.15367       62.33937       18.36917
C        113.06642       62.01568       19.30356
C        113.57959       61.28708       20.53754
O        114.76513       60.99803       20.62467
C        111.98133       61.18658       18.56593
C        112.52003       59.85541       18.11906
O        112.98840       58.98919       19.03943
O        112.64427       59.60772       16.92994
H        114.65613       61.55684       17.92821
H        112.57910       62.94630       19.66556
H        111.63291       61.77168       17.68550
H        111.10351       61.01049       19.22168
N        112.71572       60.97117       21.54720
C        113.10378       60.25322       22.75137
C        113.37473       58.78814       22.47266
O        114.25710       58.48374       21.68480
H        111.73688       61.28830       21.47828
H        112.27048       60.32224       23.48336
H        113.98949       60.74090       23.21152
N        112.65268       57.81823       23.11152
C        112.84733       56.38628       22.89082
C        111.55879       55.73324       22.41519
O        110.53124       56.39249       22.32539
C        113.32319       55.71363       24.19576
C        114.64819       56.26091       24.66289
N        114.76928       56.84046       25.87941
O        115.62843       56.16501       23.94025
H        111.93502       58.10135       23.79680
H        113.61233       56.21170       22.10271
H        113.45596       54.62243       24.03747
H        112.54813       55.84987       24.98177
H        113.95914       56.92292       26.51033
H        115.68103       57.20305       26.19538
N        111.55948       54.41486       22.06829
C        110.38622       53.70587       21.58690
C        109.31885       53.51446       22.65200
O        109.50290       53.96799       23.77234
H        112.44656       53.89044       22.10318
H        110.70840       52.69282       21.26302
H        109.96933       54.24581       20.70911
N        108.16432       52.82405       22.40280
C        107.82441       52.22724       21.11226
C        106.55877       52.84246       20.54654
O        105.84132       53.52647       21.26114
C        107.69678       50.68928       21.23570
C        109.03740       50.05135       21.60755
O        106.74436       50.34588       22.21019
H        107.48853       52.71325       23.17609
H        108.61143       52.43887       20.36359
H        107.40966       50.24803       20.25280
H        105.85177       50.41123       21.78158
H        108.92635       48.94794       21.66927
H        109.79783       50.28149       20.83057
H        109.39884       50.42594       22.58844
N        106.24540       52.62651       19.23655
C        105.09931       53.20791       18.52755
C        104.86130       52.48051       17.19282
O        105.77336       51.82639       16.70341
C        105.24902       54.75077       18.24374
C        106.49776       55.13280       17.39462
C        105.12037       55.64321       19.48838
C        107.86108       55.01900       18.08821
H        106.87195       51.98678       18.72610
H        104.20416       52.99281       19.14993
H        104.37901       55.03658       17.61861
H        106.39566       56.19185       17.08596
H        106.51559       54.52774       16.46387
H        105.98683       55.56337       20.16639
H        105.06184       56.70857       19.19046
H        104.18740       55.39569       20.03892
H        107.90968       55.66444       18.98880
H        108.10859       53.97995       18.36412
H        108.65048       55.36551       17.38897
N        103.65721       52.46860       16.54174
C        102.41663       53.09106       17.00736
C        101.68943       53.81744       15.87380
O        102.13585       53.77373       14.73658
C        101.51931       51.99647       17.64192
C        101.05894       50.88733       16.72436
O        101.34639       50.87106       15.53817
O        100.30474       49.89343       17.23022
H        103.60062       51.88035       15.69614
H        102.61182       53.82050       17.81269
H        100.61482       52.46468       18.08251
H        102.08778       51.53225       18.47709
N        100.50374       54.44786       16.12671
C         99.60364       54.95124       15.09049
C         99.19951       56.40624       15.35992
O         98.86317       56.69325       16.50005
C         98.32502       54.07920       15.15983
C         97.35799       54.36727       14.03835
C         96.14468       55.02859       14.29137
C         97.66430       53.97142       12.72427
C         95.26263       55.30637       13.24248
C         96.77711       54.24659       11.67974
C         95.57880       54.91674       11.93807
H        100.16359       54.47329       17.09921
H        100.04790       54.82273       14.08430
H         97.83891       54.25243       16.14619
H         98.58349       52.99819       15.11582
H         95.88848       55.34294       15.29530
H         98.59201       53.45498       12.51004
H         94.33450       55.82639       13.44058
H         97.02063       53.94314       10.66976
H         94.89508       55.13339       11.12764
N         99.04366       57.34744       14.36750
C         99.28400       57.13936       12.95355
C        100.76771       57.18056       12.62272
O        101.27362       56.17096       12.15313
C         98.38504       58.18878       12.28203
C         98.35895       59.34198       13.27013
C         98.38161       58.61908       14.61881
H         98.89746       56.16573       12.61331
H         98.62265       58.43577       11.22580
H         97.34903       57.77583       12.30440
H         99.26991       59.94122       13.14829
H         97.51730       60.05660       13.14897
H         98.88817       59.23506       15.39308
H         97.34071       58.39225       14.93839
N        101.53216       58.29100       12.82725
C        102.96136       58.33977       12.57692
C        103.21464       59.25544       11.38614
O        102.91593       60.43733       11.48757
C        103.67431       58.89013       13.83078
C        103.32851       58.10564       15.10714
C        103.93895       58.76633       16.30841
O        103.63267       59.91086       16.60425
O        104.81324       58.09816       17.07637
H        101.11481       59.14863       13.18842
H        103.34819       57.32116       12.37772
H        103.34759       59.94338       13.98404
H        104.77493       58.88769       13.66980
H        103.68628       57.05773       15.01336
H        102.22836       58.08792       15.26701
N        103.73000       58.81444       10.20303
C        104.06445       57.43414        9.93053
H        104.85863       57.08526       10.62265
H        103.15884       56.79851       10.03407
H        104.43733       57.33630        8.88882
H        103.86697       59.49706        9.44105
Ca       115.18192       58.61373       18.81342
O        116.30055       56.25346       21.05217
H        116.85360       56.94108       21.50060
H        116.84809       55.42977       21.09349
O        118.39120       57.48958       19.14814
H        118.32756       56.52490       18.93472
H        119.00268       57.85640       18.46134
O        114.80647       55.76717       18.20403
H        114.07121       55.35754       18.72532
H        115.62523       55.31404       18.52725
O        117.13430       59.57301       22.51278
H        118.08854       59.74494       22.31239
H        117.15152       58.90752       23.24575
O        118.18162       61.14242       19.88612
H        119.07515       61.21976       19.46648
H        117.62197       61.80353       19.40632

Ca 1.0



