%chk=apoCaM-CA-Ng.loop3.water3.frame767.chk
%nprocshared=20
%mem=10GB
%nosave
#b3lyp/svp scf=(tight,noincore,xqc) Test 
#IOP(5/87=12) Density=Current Pop=(MK,readradii) iop(6/33=2) iop(6/42=6)

apoCaM-CA-Ng.loop3.water3.frame767 

   0  1 
C         99.73618       -6.89960       21.32724
C        100.70328       -7.58564       22.24465
O        101.88501       -7.60900       21.93589
H         98.70320       -6.92474       21.73277
H        100.03953       -5.83608       21.21610
H         99.74683       -7.38739       20.33154
N        100.27692       -8.14772       23.41080
C        101.19904       -8.66500       24.41913
C        101.47488      -10.15570       24.17223
O        100.78222      -10.74320       23.35203
C        100.58208       -8.35017       25.80698
C        101.51424       -8.28821       26.97882
O        101.05002       -8.12920       28.09403
O        102.84522       -8.28746       26.82868
H         99.27272       -8.08748       23.64293
H        102.14218       -8.10241       24.32589
H         99.76454       -9.07932       25.99849
H        100.12661       -7.33525       25.77920
N        102.48607      -10.82616       24.80967
C        102.77816      -12.25375       24.59527
C        102.60421      -13.07871       25.87837
O        102.33242      -14.26618       25.76797
C        104.18111      -12.41881       23.96421
C        104.52606      -13.88081       23.60890
C        105.91094      -14.05479       22.95851
C        106.02056      -13.41912       21.56221
N        107.33224      -13.68656       20.97017
H        103.09427      -10.29340       25.44228
H        102.04665      -12.66722       23.86668
H        104.95111      -12.02250       24.65800
H        104.19646      -11.80748       23.03798
H        103.75089      -14.30277       22.93250
H        104.53672      -14.47903       24.54382
H        106.09362      -15.14674       22.84922
H        106.69452      -13.64022       23.62951
H        105.87353      -12.32044       21.62339
H        105.23226      -13.84538       20.90229
H        108.08673      -13.27119       21.56360
H        107.48466      -14.71748       20.87773
H        107.37443      -13.25509       20.01854
N        102.67114      -12.50754       27.11642
C        102.31587      -13.19313       28.36864
C        101.04612      -12.59557       28.97089
O        100.43745      -13.25979       29.79830
C        103.47095      -13.24348       29.42205
C        104.03696      -11.90064       29.82336
O        103.66540      -10.83460       29.11447
O        104.92212      -11.81068       30.65823
H        102.91989      -11.52091       27.14703
H        102.05496      -14.24785       28.13393
H        104.30891      -13.84645       29.01130
H        103.09364      -13.75748       30.33227
N        100.57480      -11.36532       28.60765
C         99.29207      -10.83492       29.03014
C         99.39139       -9.70988       30.03403
O         98.35251       -9.12973       30.31702
H        101.11648      -10.76808       27.97503
H         98.65487      -11.62065       29.48882
H         98.76330      -10.47986       28.11862
N        100.55353       -9.39850       30.68830
C        100.58726       -8.43279       31.78754
C        101.70108       -7.40916       31.64909
O        102.55585       -7.53281       30.78578
C        100.79413       -9.20532       33.10636
C         99.69872      -10.21757       33.33141
N         99.98079      -11.54054       33.38515
O         98.54413       -9.83879       33.46098
H        101.40882       -9.93874       30.49114
H         99.62655       -7.87536       31.84601
H        100.80928       -8.51144       33.97366
H        101.78057       -9.71904       33.06403
H        100.94639      -11.88190       33.27061
H         99.22894      -12.22955       33.53392
N        101.74604       -6.36746       32.52809
C        102.83219       -5.40912       32.64145
C        103.14694       -4.67534       31.36062
O        102.25596       -4.09532       30.75659
H        100.97283       -6.26574       33.20370
H        103.73832       -5.93525       33.01108
H        102.55246       -4.65782       33.41183
N        104.44093       -4.60798       30.93247
C        104.86866       -3.87409       29.74348
C        104.40449       -4.56228       28.47432
O        103.74843       -5.59006       28.55837
C        106.41293       -3.73793       29.73764
C        106.91556       -2.95952       30.93176
C        106.49812       -1.63260       31.14102
C        107.81391       -3.54448       31.83973
C        106.96164       -0.90959       32.24217
C        108.28142       -2.81601       32.93872
C        107.85624       -1.49913       33.14541
O        108.31355       -0.81079       34.21063
H        105.16577       -5.05520       31.51527
H        104.42995       -2.85406       29.76561
H        106.75563       -3.19252       28.83506
H        106.86723       -4.75299       29.70768
H        105.81276       -1.15381       30.45367
H        108.15578       -4.56206       31.69731
H        106.62568        0.10914       32.38994
H        108.97567       -3.27588       33.63051
H        108.04215        0.10138       34.38783
N        104.71939       -4.02893       27.25154
C        104.35350       -4.60378       25.95816
C        105.04325       -5.95375       25.76432
O        104.95430       -6.79177       26.64449
C        102.80428       -4.68883       25.78399
C        102.39363       -5.09671       24.34292
C        102.11041       -3.37194       26.18446
C        102.75915       -4.09915       23.23535
H        105.24533       -3.14369       27.22331
H        104.72842       -3.90790       25.17989
H        102.41127       -5.47295       26.46529
H        101.29117       -5.24163       24.31627
H        102.86950       -6.06061       24.09341
H        101.01097       -3.46180       26.05225
H        102.29282       -3.14032       27.25438
H        102.48212       -2.51721       25.58346
H        103.85474       -3.95750       23.15532
H        102.40285       -4.49213       22.26012
H        102.27162       -3.11682       23.39912
N        105.72781       -6.25896       24.62453
C        106.29834       -7.59315       24.41435
C        107.58916       -7.61099       23.61023
O        108.11703       -8.69876       23.41866
C        105.25126       -8.50326       23.75417
O        104.93016       -8.06424       22.46257
H        105.68165       -5.58887       23.84403
H        106.54666       -8.04801       25.39877
H        104.34351       -8.55627       24.38769
H        105.63681       -9.54304       23.68514
H        104.35060       -7.26760       22.56923
N        108.16231       -6.48416       23.09287
C        109.37544       -6.54063       22.28133
C        110.55861       -7.05951       23.09681
O        110.45820       -7.07777       24.31639
C        109.66999       -5.14690       21.71991
H        107.72153       -5.56829       23.24468
H        109.17071       -7.23651       21.43789
H        109.84287       -4.42758       22.54803
H        110.55395       -5.14954       21.06901
H        108.80574       -4.79744       21.11530
N        111.69526       -7.57620       22.53797
C        111.93886       -7.75476       21.11086
C        113.41331       -7.51262       20.79740
O        114.23453       -8.20412       21.38478
C        111.58426       -9.19540       20.72759
H        112.38301       -7.99114       23.18738
H        111.27471       -7.11676       20.51301
H        112.19543       -9.92472       21.30178
H        110.51212       -9.39201       20.94265
H        111.75722       -9.35547       19.64147
N        113.87636       -6.60829       19.88241
C        113.06067       -5.68956       19.09517
C        112.73793       -4.42002       19.87032
O        112.00268       -3.59595       19.34227
C        113.80274       -5.30911       17.79421
C        114.00385       -6.52571       16.87806
C        114.76441       -6.14434       15.64116
O        114.27587       -5.20776       14.80547
O        115.82724       -6.68671       15.38365
H        114.89834       -6.58122       19.73322
H        112.11713       -6.18350       18.78345
H        114.78672       -4.85556       18.05039
H        113.20826       -4.55433       17.23270
H        113.01238       -6.93048       16.57915
H        114.55905       -7.32340       17.41701
N        113.24316       -4.17325       21.11377
C        112.93026       -2.95863       21.83574
H        111.83722       -2.89668       22.01996
H        113.45705       -2.95109       22.81343
H        113.25668       -2.07298       21.24974
H        113.87498       -4.84645       21.56923
Ca       104.11574       -8.72283       28.63832
O        107.00625       -7.60855       28.63471
H        107.22281       -8.27620       27.93642
H        107.62918       -6.85897       28.46237
O        105.65961      -10.42891       26.67627
H        105.98533      -10.74951       27.55414
H        106.43420      -10.53837       26.07006
O        105.34058       -8.03851       31.45672
H        105.40452       -9.00883       31.64302
H        106.22458       -7.67421       31.71255

Ca 1.0



