%chk=apoCaM-CA-Ng.loop2.water2.frame963.chk
%nprocshared=20
%mem=10GB
%nosave
#b3lyp/svp scf=(tight,noincore,xqc) Test 
#IOP(5/87=12) Density=Current Pop=(MK,readradii) iop(6/33=2) iop(6/42=6)

apoCaM-CA-Ng.loop2.water2.frame963 

   -2  1 
C         57.23365      102.08334       33.40014
C         56.46681      101.14928       34.28879
O         55.26512      101.32796       34.42746
H         58.30747      101.80590       33.34888
H         56.81090      102.04643       32.37416
H         57.15260      103.11920       33.79054
N         57.09951      100.12260       34.92460
C         56.41722       99.17354       35.79597
C         56.49559       97.74629       35.24941
O         55.91191       96.86520       35.86425
C         57.03838       99.28517       37.20532
C         56.33128       98.45157       38.23746
O         57.00197       97.49480       38.90710
O         55.15199       98.64783       38.48473
H         58.11785      100.01398       34.79489
H         55.33790       99.43247       35.86929
H         56.98752      100.34481       37.53832
H         58.11009       98.99046       37.15758
N         57.19476       97.43114       34.11368
C         57.27682       96.06254       33.59606
C         58.34256       95.92211       32.50033
O         58.84010       96.93229       32.02411
C         55.89895       95.64593       33.04347
H         57.71052       98.17454       33.62954
H         57.59585       95.41656       34.44162
H         55.11585       95.69689       33.82571
H         55.60611       96.32905       32.21676
H         55.89201       94.61518       32.64615
N         58.79860       94.71348       32.04394
C         58.40356       93.39807       32.54678
C         59.59409       92.68577       33.17902
O         60.70432       93.19735       33.12592
C         57.72793       92.56074       31.43577
C         58.60237       92.28473       30.24446
O         59.03609       93.29410       29.46766
O         58.87256       91.13515       29.94040
H         59.52778       94.74089       31.31561
H         57.66340       93.50228       33.35997
H         56.82330       93.09266       31.07202
H         57.39209       91.59473       31.87051
N         59.40543       91.53437       33.88515
C         60.45553       90.88866       34.66110
C         60.44863       89.38808       34.47575
O         60.06142       88.70673       35.41503
H         58.44654       91.16386       33.97742
H         60.21065       91.08555       35.72858
H         61.46416       91.31280       34.47606
N         60.82519       88.75367       33.32972
C         61.37722       89.39798       32.14124
C         62.85452       89.73961       32.33368
O         63.48833       89.18782       33.22361
C         61.20127       88.42078       30.95928
C         61.73086       88.91583       29.64597
N         62.67916       88.21256       28.98881
O         61.28937       89.94308       29.15728
H         60.70353       87.72743       33.31292
H         60.79418       90.31772       31.92462
H         60.11641       88.21259       30.83416
H         61.70255       87.46034       31.21323
H         63.06573       87.34023       29.37772
H         63.01764       88.53522       28.07739
N         63.45338       90.67822       31.53886
C         64.84566       91.08852       31.67644
C         65.59856       91.26017       30.35957
O         66.75790       91.64136       30.43802
H         62.86348       91.19307       30.87528
H         65.40762       90.38438       32.32944
H         64.85712       92.08337       32.16947
N         65.03986       91.03757       29.12791
C         65.76144       91.25872       27.86542
C         65.03132       92.27810       26.99101
O         63.99203       92.78342       27.39415
C         65.92582       89.92256       27.09522
C         66.63761       88.85897       27.93427
O         64.67266       89.45234       26.67772
H         64.07105       90.69812       29.06456
H         66.78157       91.65566       28.05934
H         66.55957       90.10955       26.19986
H         64.82919       88.83042       25.91977
H         66.77312       87.93718       27.32963
H         67.63890       89.22680       28.24377
H         66.04502       88.60356       28.83755
N         65.50655       92.58066       25.74365
C         64.81077       93.43759       24.78975
C         64.27961       92.54233       23.68154
O         65.05874       91.92082       22.97255
C         65.76277       94.54288       24.24977
C         65.15524       95.37775       23.08843
C         66.24479       95.45195       25.39311
C         63.87263       96.13430       23.43114
H         66.37123       92.12773       25.41573
H         63.94639       93.93148       25.28516
H         66.66237       94.04209       23.82676
H         64.93459       94.70519       22.23164
H         65.91431       96.11066       22.73821
H         65.39460       95.97337       25.87974
H         66.77257       94.85669       26.16754
H         66.95816       96.20937       25.00411
H         63.07890       95.42049       23.71913
H         64.03835       96.86531       24.24783
H         63.52389       96.69224       22.53633
N         62.93500       92.38590       23.54249
C         62.28882       91.45977       22.62140
C         61.24989       92.13779       21.72075
O         60.68096       91.42510       20.90514
C         61.67988       90.29122       23.44743
C         60.82300       90.77729       24.58452
O         61.24929       90.60020       25.85498
O         59.81911       91.43509       24.36374
H         62.33288       92.89118       24.19658
H         63.03953       91.00539       21.93813
H         62.52780       89.72854       23.89646
H         61.11551       89.58652       22.79996
N         60.94172       93.47600       21.77973
C         59.97061       94.09450       20.86823
C         59.70552       95.56940       21.22495
O         60.67113       96.31973       21.28063
C         60.49446       94.06278       19.40244
C         59.47371       94.63720       18.44118
C         59.70122       95.87351       17.81077
C         58.27421       93.95018       18.18408
C         58.73637       96.41937       16.95732
C         57.31438       94.49728       17.32660
C         57.54322       95.73318       16.71733
H         61.39354       94.07016       22.48788
H         59.04018       93.50234       20.93252
H         60.74706       93.03849       19.06059
H         61.43567       94.65496       19.36262
H         60.61464       96.42493       17.99394
H         58.07915       92.99461       18.65461
H         58.91064       97.37823       16.48638
H         56.38986       93.96618       17.13972
H         56.79561       96.15952       16.06056
N         58.44012       96.09688       21.37750
C         58.17614       97.53843       21.44648
C         58.67028       98.26851       22.68496
O         58.54220       99.48388       22.73694
C         56.64587       97.63423       21.39887
C         56.28066       96.42065       20.57541
C         57.19832       95.37013       21.18519
H         58.62239       97.98815       20.53021
H         56.23245       97.45111       22.41922
H         56.25348       98.60522       21.02928
H         55.20361       96.15037       20.59214
H         56.59473       96.60536       19.52271
H         56.81862       95.05368       22.18181
H         57.24155       94.50522       20.50497
N         59.17420       97.59107       23.74904
C         59.55759       98.22452       25.01597
C         60.74595       99.17469       24.91199
O         61.05368       99.80532       25.91411
C         59.82411       97.11861       26.06247
C         61.03735       96.25752       25.68113
C         60.84490       94.84509       26.12310
O         60.61312       94.01038       25.26759
O         60.88189       94.44683       27.40599
H         59.18978       96.56404       23.68440
H         58.68003       98.80849       25.37143
H         58.90182       96.49308       26.05750
H         59.94964       97.50682       27.09600
H         62.00013       96.70064       26.01327
H         61.10532       96.20091       24.57678
N         61.46171       99.33464       23.75960
C         62.57927      100.25122       23.63949
H         63.49281       99.68598       23.36106
H         62.35936      100.99467       22.84456
H         62.78296      100.80369       24.58101
H         61.22398       98.79114       22.91929
Ca        60.67721       92.19757       27.33949
O         57.60545       92.31767       26.92304
H         57.63986       91.32863       26.88930
H         58.11942       92.61182       26.12980
O         62.15542       93.46352       29.93365
H         62.21405       94.44902       29.99400
H         61.67395       93.19618       30.75509

Ca 1.0



