%chk=apoCaM-CA-Ng.loop3.water7.frame1167.chk
%nprocshared=20
%mem=10GB
%nosave
#b3lyp/svp scf=(tight,noincore,xqc) Test 
#IOP(5/87=12) Density=Current Pop=(MK,readradii) iop(6/33=2) iop(6/42=6)

apoCaM-CA-Ng.loop3.water7.frame1167 

   0  1 
C         75.10758       51.86283       -7.11821
C         75.31743       52.26125       -8.55074
O         75.10776       53.42149       -8.87201
H         74.05253       52.04797       -6.82776
H         75.33606       50.78799       -6.95732
H         75.77471       52.46487       -6.46547
N         75.74012       51.34620       -9.46902
C         75.99928       51.66615      -10.86948
C         75.09438       50.89054      -11.82137
O         75.36582       50.91098      -13.01208
C         77.49696       51.46497      -11.19200
C         78.00131       50.04558      -11.12347
O         77.18536       49.01727      -10.82111
O         79.17600       49.82136      -11.36596
H         75.90073       50.37750       -9.15608
H         75.80879       52.74160      -11.06435
H         78.08988       52.09109      -10.48956
H         77.69116       51.84485      -12.21978
N         73.96184       50.25672      -11.38605
C         72.99551       49.57254      -12.24747
C         72.51300       50.49111      -13.36849
O         72.65164       50.15403      -14.53505
C         73.49544       48.16719      -12.69921
C         74.70564       48.09954      -13.65250
C         75.04211       46.64359      -14.01009
C         76.09693       46.52328      -15.12589
N         77.37187       47.15236      -14.77852
H         73.71212       50.32010      -10.38845
H         72.10705       49.34929      -11.61771
H         72.64111       47.66237      -13.20269
H         73.73696       47.58288      -11.78387
H         75.59583       48.54517      -13.17245
H         74.47687       48.63929      -14.59158
H         74.12440       46.13715      -14.38162
H         75.38739       46.11015      -13.09728
H         75.70251       46.98191      -16.06007
H         76.26720       45.44186      -15.32513
H         77.74536       46.75083      -13.88869
H         78.05624       46.96982      -15.54801
H         77.25900       48.18736      -14.68907
N         71.95642       51.70298      -13.07087
C         71.63993       52.70719      -14.08780
C         72.51264       53.92426      -13.82976
O         72.03393       55.04153      -13.69423
C         70.13250       53.01506      -14.10116
C         69.35099       51.79384      -14.49865
O         68.44892       51.25704      -13.65785
O         69.53712       51.27586      -15.58890
H         71.81706       51.95609      -12.08012
H         71.91969       52.34498      -15.10201
H         69.91734       53.81582      -14.84178
H         69.81089       53.36588      -13.09635
N         73.84882       53.71725      -13.71076
C         74.85883       54.71415      -13.41507
C         76.07464       54.48640      -14.29363
O         75.99769       53.68419      -15.21501
H         74.17462       52.74907      -13.77845
H         75.18583       54.52483      -12.37418
H         74.47333       55.75406      -13.47792
N         77.28086       55.06876      -14.04979
C         77.56742       56.02858      -12.99315
C         78.50006       55.37725      -11.97662
O         79.53328       54.86822      -12.38881
C         78.24590       57.25487      -13.63444
C         78.53914       58.33782      -12.62768
N         79.81270       58.71601      -12.36867
O         77.61521       58.88390      -12.04399
H         78.07231       54.78145      -14.64889
H         76.63495       56.37182      -12.50676
H         77.58555       57.67824      -14.42166
H         79.18843       56.92725      -14.12798
H         80.60729       58.26659      -12.84675
H         80.00685       59.45798      -11.68022
N         78.25529       55.35258      -10.63289
C         77.10825       55.99083       -9.99707
C         77.16314       55.93730       -8.48133
O         78.07555       55.34396       -7.92053
H         78.96486       54.88902      -10.04477
H         76.16579       55.52124      -10.34753
H         77.10601       57.06499      -10.27306
N         76.21760       56.59243       -7.74634
C         76.25320       56.66854       -6.28709
C         74.97176       56.10455       -5.68672
O         74.06004       55.76720       -6.43288
C         76.46280       58.15365       -5.89776
C         76.85290       58.36798       -4.45583
C         76.03943       59.11326       -3.58556
C         78.06194       57.83538       -3.97605
C         76.42867       59.31271       -2.25536
C         78.44789       58.03594       -2.64952
C         77.63105       58.77424       -1.78287
O         77.99232       58.97320       -0.49924
H         75.47018       57.10232       -8.24485
H         77.10447       56.06737       -5.90461
H         75.54382       58.72451       -6.16034
H         77.29458       58.57242       -6.50584
H         75.10477       59.53611       -3.93177
H         78.71088       57.26913       -4.63226
H         75.79336       59.88322       -1.58967
H         79.38354       57.61885       -2.29880
H         78.81708       58.61825       -0.13704
N         74.83113       55.96588       -4.33579
C         73.59730       55.47652       -3.71611
C         72.43207       56.40203       -4.05254
O         72.65399       57.56876       -4.33496
C         73.76664       55.26670       -2.17456
C         74.06980       56.59491       -1.42756
C         72.53837       54.55570       -1.57150
C         74.40965       56.40804        0.05243
H         75.63829       56.18873       -3.73939
H         73.39576       54.48058       -4.17043
H         74.63561       54.58359       -2.04344
H         73.21256       57.29612       -1.51840
H         74.95247       57.07676       -1.88168
H         72.71732       54.27445       -0.51456
H         71.63982       55.20650       -1.60665
H         72.32929       53.61464       -2.12251
H         73.54677       56.00992        0.62235
H         75.27747       55.72340        0.16386
H         74.67901       57.39106        0.49388
N         71.16327       55.90095       -4.12454
C         70.01479       56.71674       -4.52621
C         68.78253       55.85945       -4.81526
O         68.80619       54.65603       -4.62774
C         69.70029       57.78500       -3.45712
O         69.33860       57.17083       -2.25043
H         71.03919       54.89684       -3.94403
H         70.27043       57.21900       -5.48450
H         68.86998       58.43496       -3.81258
H         70.58235       58.43775       -3.28779
H         68.99751       57.89517       -1.66322
N         67.65664       56.45364       -5.31001
C         66.43031       55.74827       -5.66398
C         65.83388       55.01761       -4.47401
O         65.44042       53.86569       -4.61343
C         66.66916       54.82051       -6.86908
H         67.65995       57.47193       -5.45653
H         65.68878       56.51644       -5.97607
H         65.71923       54.34127       -7.18736
H         67.06962       55.40503       -7.72376
H         67.39676       54.01817       -6.62196
N         65.76022       55.62757       -3.25332
C         65.19409       55.00582       -2.06076
C         65.73314       53.59844       -1.87728
O         64.96071       52.64843       -1.87878
C         63.66220       55.03782       -2.12778
H         66.16393       56.57129       -3.14849
H         65.47659       55.61463       -1.17284
H         63.28320       54.45209       -2.99056
H         63.23688       54.61970       -1.18904
H         63.31472       56.08850       -2.22308
N         67.06998       53.39587       -1.73194
C         67.65817       52.06846       -1.62811
C         68.10780       51.85547       -0.20066
O         67.66965       50.89655        0.42064
C         68.79965       51.92325       -2.65944
C         69.26679       50.46931       -2.85180
C         68.19028       49.62266       -3.48159
O         67.71190       48.54169       -2.83764
O         67.74903       49.91042       -4.58400
H         67.69212       54.21796       -1.68937
H         66.89505       51.29532       -1.86612
H         69.65706       52.56203       -2.35448
H         68.44971       52.28571       -3.65001
H         69.58155       50.03722       -1.87829
H         70.14253       50.45830       -3.53608
N         68.92238       52.75645        0.41475
C         69.26984       52.64267        1.81360
H         69.88731       53.51286        2.12172
H         68.34388       52.63858        2.43013
H         69.83920       51.70779        1.99242
H         69.26917       53.57570       -0.10621
Ca        67.39659       49.35895      -14.28765
O         66.08460       49.45772      -11.56132
H         66.53553       50.33866      -11.52711
H         65.15574       49.66435      -11.83489
O         64.98267       50.67675      -15.59574
H         65.29316       50.27992      -16.44824
H         64.68166       49.90219      -15.05700
O         67.97428       48.88931      -17.34500
H         68.69247       49.15220      -17.97373
H         67.53705       48.11293      -17.77673
O         67.50690       46.54623      -12.61827
H         67.54482       46.91916      -11.70188
H         66.57325       46.23364      -12.71996
O         69.64064       48.87461      -12.34557
H         70.02600       47.96311      -12.32244
H         69.38169       49.06163      -11.40848
O         65.72230       47.13471      -15.49949
H         65.30117       47.16948      -16.39476
H         65.45886       46.25364      -15.13314
O         69.45674       46.96953      -15.27928
H         69.32007       46.04754      -14.94502
H         70.38867       47.19012      -15.02757

Ca 1.0



