%chk=apoCaM-CA-Ng.loop3.water4.frame1021.chk
%nprocshared=20
%mem=10GB
%nosave
#b3lyp/svp scf=(tight,noincore,xqc) Test 
#IOP(5/87=12) Density=Current Pop=(MK,readradii) iop(6/33=2) iop(6/42=6)

apoCaM-CA-Ng.loop3.water4.frame1021 

   0  1 
C         34.18353       24.69427       40.35315
C         33.88697       24.34931       38.92516
O         33.43787       25.21345       38.18479
H         33.93437       25.75739       40.56072
H         33.57266       24.05199       41.02239
H         35.25946       24.52793       40.56490
N         34.10026       23.08168       38.46936
C         33.78070       22.67053       37.10632
C         32.32290       22.94274       36.78247
O         32.05658       23.50015       35.72812
C         34.19976       21.20944       36.80187
C         33.63841       20.10444       37.66436
O         32.84500       20.34883       38.72094
O         33.94427       18.94997       37.41369
H         34.48817       22.38604       39.12462
H         34.38805       23.28523       36.40229
H         35.30673       21.14868       36.88343
H         33.92858       20.99460       35.74439
N         31.33512       22.69465       37.68718
C         29.95023       23.06962       37.44540
C         29.40569       22.22744       36.30559
O         29.41109       21.00833       36.41351
C         29.14149       22.92749       38.75251
C         27.82838       23.72354       38.74122
C         27.16535       23.66475       40.12663
C         25.95203       24.59813       40.22027
N         25.34114       24.52215       41.54810
H         31.58642       22.30915       38.60635
H         29.94617       24.15195       37.18348
H         29.75429       23.38008       39.56467
H         28.97823       21.85656       39.00438
H         27.13655       23.34264       37.95990
H         28.07142       24.78645       38.51572
H         27.89836       23.98648       40.90024
H         26.85995       22.61795       40.34169
H         25.20011       24.32028       39.45032
H         26.28014       25.64571       40.03166
H         26.03566       24.79116       42.28318
H         24.53169       25.18224       41.59343
H         24.99768       23.55102       41.72897
N         28.97563       22.81352       35.15357
C         28.58039       22.04011       33.97573
C         29.74803       21.23216       33.42298
O         30.89288       21.62716       33.59567
C         27.97998       22.92848       32.86024
C         28.91267       23.98778       32.33026
O         29.22858       23.99803       31.15094
O         29.34050       24.97188       33.14253
H         28.93802       23.83963       35.13048
H         27.77746       21.33623       34.28812
H         27.07493       23.44086       33.25029
H         27.65949       22.27363       32.01955
N         29.51644       20.08041       32.72990
C         30.57613       19.26423       32.15605
C         31.47268       18.70446       33.24263
O         30.94045       18.04794       34.12616
H         28.54275       19.76624       32.59812
H         31.11947       19.87035       31.40795
H         30.11759       18.40314       31.62246
N         32.82286       18.91120       33.30723
C         33.63100       19.62806       32.32155
C         35.01794       19.88579       32.91254
O         35.68278       18.92382       33.27635
C         33.76457       18.80954       31.00944
C         34.55789       19.54262       29.94378
N         33.99517       19.86392       28.75505
O         35.72618       19.83717       30.14934
H         33.30166       18.53845       34.14372
H         33.13186       20.58775       32.09201
H         32.76001       18.57281       30.60813
H         34.26470       17.83948       31.22023
H         33.01593       19.62282       28.54670
H         34.54508       20.35749       28.03539
N         35.55372       21.13372       33.04288
C         34.87231       22.33755       32.58931
C         35.67288       23.60188       32.80508
O         36.74559       23.56622       33.38435
H         36.49387       21.20479       33.45815
H         33.91488       22.44081       33.13825
H         34.67594       22.24685       31.49971
N         35.16420       24.78845       32.35679
C         35.85695       26.06021       32.54936
C         34.95424       27.24941       32.20319
O         33.89681       27.07357       31.62231
C         37.13050       26.07667       31.66414
C         38.05850       27.22258       31.95785
C         38.31317       28.20746       30.99047
C         38.69388       27.30155       33.20726
C         39.18596       29.26173       31.27434
C         39.56931       28.35228       33.48707
C         39.81744       29.33784       32.52101
O         40.65888       30.35851       32.77912
H         34.25213       24.76905       31.89109
H         36.09690       26.13431       33.63215
H         36.80542       26.08761       30.59946
H         37.72827       25.15336       31.80367
H         37.83447       28.16281       30.02024
H         38.51589       26.54423       33.96096
H         39.37165       30.01964       30.52415
H         40.05446       28.39697       34.45372
H         41.11568       30.44427       33.62810
N         35.31568       28.51094       32.57748
C         34.51356       29.68918       32.25103
C         34.43545       29.89420       30.74711
O         35.40220       29.61927       30.04896
C         35.01999       30.97654       32.98217
C         34.86560       30.87952       34.52347
C         36.48312       31.32667       32.63974
C         33.40759       30.79452       34.98880
H         36.16839       28.62033       33.13624
H         33.47621       29.50742       32.59101
H         34.39686       31.83488       32.64400
H         35.28623       31.80103       34.98228
H         35.43415       30.01194       34.92230
H         36.61904       31.46025       31.54773
H         36.76860       32.28164       33.13145
H         37.18996       30.55305       32.99906
H         33.37304       30.79064       36.09815
H         32.83706       31.67419       34.62114
H         32.90923       29.86955       34.64341
N         33.30857       30.42886       30.19148
C         33.16730       30.69489       28.76240
C         31.78239       30.32694       28.24527
O         30.89011       30.07873       29.04221
C         33.40970       32.19144       28.52594
O         32.47598       32.94595       29.25333
H         32.55321       30.73034       30.82456
H         33.92380       30.11359       28.19072
H         33.32519       32.42079       27.44077
H         34.43611       32.44333       28.87270
H         32.64063       33.89561       29.02111
N         31.52894       30.33227       26.89872
C         30.20299       30.17437       26.29876
C         29.31689       31.38331       26.57355
O         28.12413       31.30422       26.31388
C         29.52460       28.86288       26.72804
H         32.31636       30.49487       26.25303
H         30.31562       30.11643       25.19347
H         30.18492       27.99655       26.51554
H         29.25677       28.87539       27.79938
H         28.57746       28.72100       26.16350
N         29.83847       32.55354       27.05800
C         29.05435       33.73585       27.37999
C         28.10086       33.40543       28.50432
O         26.89296       33.50331       28.33328
C         28.36631       34.31535       26.13214
H         30.84959       32.63076       27.21983
H         29.74242       34.52837       27.75217
H         27.62327       33.61797       25.69690
H         27.83947       35.25659       26.39915
H         29.12812       34.55241       25.35935
N         28.60626       33.00156       29.70594
C         27.76815       32.62691       30.83801
C         27.87513       33.61115       31.98993
O         27.14618       33.44319       32.95878
C         28.11415       31.19886       31.30729
C         29.50336       31.07861       31.97307
C         29.72331       29.67108       32.42604
O         28.94599       29.16016       33.21753
O         30.74471       28.94054       31.94611
H         29.63110       32.96725       29.81579
H         26.70219       32.62414       30.52264
H         28.04949       30.50537       30.43840
H         27.34599       30.88488       32.04834
H         29.56549       31.73956       32.86348
H         30.30385       31.36860       31.26588
N         28.75449       34.65263       31.97698
C         28.85036       35.57804       33.08295
H         27.88080       36.10192       33.21926
H         29.11235       35.03052       34.01359
H         29.63997       36.33130       32.87832
H         29.38529       34.80137       31.17713
Ca        30.45685       26.76629       32.38634
O         31.95041       24.38470       32.54388
H         32.45331       24.26475       33.38618
H         32.06975       23.53977       32.04368
O         32.38950       25.70005       29.57507
H         33.01882       26.37642       29.21838
H         32.24405       25.07598       28.82107
O         29.26036       26.95627       29.85556
H         28.56893       27.07811       29.15927
H         30.05119       27.45306       29.52598
O         32.17430       27.18549       34.92941
H         32.58701       26.47937       35.48674
H         32.87034       27.41215       34.26334

Ca 1.0



