%chk=apoCaM-CA-Ng.loop2.water3.frame244.chk
%nprocshared=20
%mem=10GB
%nosave
#b3lyp/svp scf=(tight,noincore,xqc) Test 
#IOP(5/87=12) Density=Current Pop=(MK,readradii) iop(6/33=2) iop(6/42=6)

apoCaM-CA-Ng.loop2.water3.frame244 

   -2  1 
C         48.86268        7.80152      104.59544
C         49.28337        7.13159      105.86951
O         49.31893        7.79952      106.89332
H         47.83927        8.21446      104.70961
H         49.56616        8.63187      104.37085
H         48.87180        7.09324      103.74109
N         49.65068        5.81661      105.87707
C         50.14781        5.13702      107.06927
C         51.61781        4.80238      106.86615
O         52.03309        3.66416      107.03584
C         49.25413        3.92651      107.44080
C         49.21374        2.82836      106.40721
O         48.76278        3.03477      105.29226
O         49.64008        1.59170      106.72797
H         49.63453        5.29792      104.98740
H         50.11311        5.82724      107.94024
H         48.21512        4.28226      107.61567
H         49.62637        3.49765      108.39664
N         52.46220        5.79510      106.46555
C         53.89292        5.61962      106.23569
C         54.42565        6.78643      105.42735
O         54.14255        7.92827      105.76814
C         54.64841        5.52044      107.55940
H         52.04680        6.72119      106.28070
H         54.06517        4.68686      105.65416
H         54.51572        6.44868      108.15511
H         54.29118        4.65294      108.15037
H         55.73205        5.37997      107.35261
N         55.19215        6.56404      104.32129
C         55.58299        7.62349      103.39948
C         57.09132        7.83049      103.38973
O         57.80653        7.04418      103.99694
C         55.04008        7.21959      102.01414
C         55.13042        8.31128      101.00204
O         54.48882        9.47160      101.22788
O         55.75831        8.14935       99.96815
H         55.47497        5.59699      104.09604
H         55.11898        8.58290      103.71650
H         53.96237        6.96511      102.11249
H         55.57418        6.30753      101.66088
N         57.64153        8.90669      102.74882
C         59.07522        9.15226      102.68398
C         59.51492       10.39018      103.44260
O         60.71400       10.62247      103.48984
H         57.02159        9.59163      102.29257
H         59.37773        9.24175      101.61770
H         59.63844        8.30021      103.11776
N         58.63138       11.23440      104.05506
C         59.05503       12.39826      104.83892
C         58.17134       12.50666      106.09303
O         57.28862       11.67389      106.25249
C         58.98403       13.63935      103.91546
C         59.81967       14.83517      104.32703
N         59.78966       15.95881      103.57482
O         60.56326       14.78792      105.29470
H         57.62130       11.07984      103.92871
H         60.11424       12.26129      105.14875
H         57.92038       13.92466      103.76946
H         59.39848       13.35323      102.92333
H         59.19201       16.01478      102.73753
H         60.36976       16.77321      103.82665
N         58.32562       13.49562      107.02369
C         57.46668       13.61174      108.19397
C         56.67254       14.89542      108.17869
O         56.83566       15.71727      107.28734
H         59.05912       14.20108      106.92120
H         58.08689       13.56757      109.11496
H         56.73439       12.77898      108.24359
N         55.75335       15.10747      109.16019
C         54.90850       16.29532      109.23894
C         54.06953       16.47263      107.97664
O         54.05993       17.57511      107.44596
C         54.03501       16.30329      110.52592
C         52.99237       15.17903      110.61761
O         54.85480       16.31223      111.67084
H         55.65541       14.37654      109.87932
H         55.56746       17.18902      109.33500
H         53.46629       17.25950      110.53584
H         55.16190       15.38528      111.84817
H         52.28247       15.24921      109.78188
H         53.46428       14.17615      110.60071
H         52.41230       15.28572      111.55835
N         53.40332       15.42559      107.39888
C         52.63445       15.56144      106.15842
C         53.36904       14.92667      104.99093
O         54.41218       14.31220      105.16970
C         51.19732       14.94583      106.27037
C         51.23983       13.40966      106.50919
C         50.34294       15.68354      107.30879
C         49.87977       12.72961      106.35119
H         53.50795       14.48888      107.81473
H         52.53013       16.63663      105.89223
H         50.68637       15.11163      105.29932
H         51.65330       13.17851      107.51291
H         51.89905       12.93873      105.74866
H         49.29327       15.32738      107.28080
H         50.72986       15.53320      108.32816
H         50.32699       16.77098      107.08487
H         49.47142       12.92532      105.33597
H         50.00313       11.63191      106.47004
H         49.15848       13.07851      107.11552
N         52.83412       15.04511      103.74476
C         53.37177       14.43682      102.54210
C         53.73901       15.53210      101.53624
O         54.01724       15.22216      100.38682
C         52.28300       13.46838      102.02432
C         52.72064       12.50343      100.95521
O         53.98111       12.48840      100.48235
O         51.91635       11.69123      100.52652
H         51.96961       15.59589      103.62678
H         54.28026       13.83707      102.77064
H         51.40396       14.05231      101.67244
H         51.95514       12.83456      102.87863
N         53.82394       16.84289      101.92538
C         54.19871       17.92534      101.02741
C         53.03048       18.26258      100.11547
O         51.95625       18.53798      100.63325
C         54.64924       19.15592      101.84611
C         55.26878       20.21023      100.95881
C         56.66863       20.32338      100.88407
C         54.46986       21.07048      100.18540
C         57.25743       21.26876      100.04130
C         55.06392       22.02274       99.35100
C         56.45620       22.11852       99.27566
H         53.68481       17.08723      102.91626
H         55.10603       17.61133      100.46977
H         55.43289       18.78727      102.54552
H         53.83883       19.58659      102.47448
H         57.30621       19.66601      101.46264
H         53.39031       21.00903      100.23019
H         58.33580       21.33833       99.97955
H         54.44496       22.68447       98.75948
H         56.91511       22.85021       98.62379
N         53.14738       18.29004       98.75302
C         52.05988       18.64675       97.85499
C         51.14306       17.46330       97.56391
O         50.31705       17.58919       96.67035
C         52.81552       19.09300       96.59571
C         53.97448       18.12170       96.56241
C         54.39045       18.09100       98.02968
H         51.46064       19.51368       98.21257
H         52.20569       19.14677       95.66810
H         53.24311       20.10474       96.78608
H         53.55850       17.13028       96.28412
H         54.79461       18.36827       95.85608
H         54.88413       17.12206       98.25458
H         55.06932       18.93879       98.26793
N         51.21755       16.29173       98.26437
C         50.43673       15.10858       97.92575
C         49.36875       14.80852       98.96669
O         48.61177       13.87146       98.75148
C         51.38677       13.90082       97.78768
C         52.51691       14.14476       96.77841
C         53.45210       12.97490       96.71394
O         53.04551       11.87655       96.36992
O         54.75255       13.13800       97.02733
H         51.86366       16.20594       99.05965
H         49.90587       15.25997       96.96034
H         50.80641       13.00067       97.48710
H         51.84632       13.70952       98.77692
H         53.10623       15.02943       97.09471
H         52.09399       14.33317       95.76991
N         49.22805       15.55191      100.10413
C         48.19752       15.30265      101.09292
H         47.52564       14.46545      100.80869
H         48.67101       15.05796      102.06635
H         47.57804       16.21623      101.21220
H         49.86849       16.33379      100.29868
Ca        54.52275       10.96800       98.89999
O         52.03653        9.08990       97.94601
H         51.44268        8.45218       98.41626
H         51.94622        8.85388       96.98854
O         55.25318        9.12253       96.63182
H         54.91523        8.25884       96.28575
H         55.05132        9.77485       95.91475
O         57.41674       10.85450       99.74718
H         57.69295       10.04620       99.24646
H         57.51096       11.59388       99.09553

Ca 1.0



