%chk=apoCaM-CA-Ng.loop3.water2.frame550.chk
%nprocshared=20
%mem=10GB
%nosave
#b3lyp/svp scf=(tight,noincore,xqc) Test 
#IOP(5/87=12) Density=Current Pop=(MK,readradii) iop(6/33=2) iop(6/42=6)

apoCaM-CA-Ng.loop3.water2.frame550 

   0  1 
C         49.30791        5.50861       72.66639
C         48.56673        4.43550       73.40743
O         47.85399        4.73144       74.35557
H         50.39825        5.30252       72.69951
H         48.97623        5.51559       71.60540
H         49.11159        6.50812       73.10672
N         48.67696        3.14659       72.99323
C         47.94100        2.03838       73.58863
C         48.36036        1.81695       75.03856
O         49.54873        1.66634       75.28595
C         48.18405        0.76706       72.74174
C         47.20686       -0.32792       73.03496
O         47.29402       -1.39450       72.44860
O         46.18346       -0.11588       73.87830
H         49.28023        2.95922       72.17604
H         46.85727        2.27446       73.53294
H         49.22686        0.41090       72.88557
H         48.04183        1.00703       71.66691
N         47.43282        1.74815       76.04251
C         47.78791        1.52280       77.44804
C         47.62501        0.04901       77.83871
O         48.02432       -0.32353       78.93297
C         46.86603        2.39360       78.32790
C         47.32988        2.58658       79.78210
C         46.19549        3.20745       80.61842
C         46.62958        3.58926       82.04207
N         47.44449        4.80625       82.04978
H         46.43238        1.80049       75.79345
H         48.84993        1.81722       77.59762
H         45.86293        1.91583       78.30007
H         46.77880        3.41212       77.88824
H         48.23520        3.22787       79.76241
H         47.59597        1.62694       80.26687
H         45.39286        2.43945       80.69073
H         45.76590        4.10562       80.12487
H         47.17515        2.74580       82.52109
H         45.71543        3.78731       82.64458
H         48.30976        4.69068       81.47810
H         46.88133        5.60538       81.67506
H         47.71744        5.02982       83.03363
N         47.03110       -0.84131       76.99506
C         46.80990       -2.25253       77.28021
C         47.58778       -3.15574       76.32573
O         47.58632       -4.35926       76.54294
C         45.28703       -2.55260       77.24627
C         44.58511       -2.04599       75.99344
O         44.98376       -2.44126       74.76688
O         43.68410       -1.22960       76.09482
H         46.69015       -0.50609       76.09497
H         47.18864       -2.50440       78.29615
H         44.82258       -2.04990       78.12318
H         45.12133       -3.64298       77.37304
N         48.30404       -2.65794       75.27490
C         49.14123       -3.46684       74.40375
C         48.43530       -4.51624       73.55875
O         49.15015       -5.17507       72.81639
H         48.32664       -1.64533       75.10513
H         49.91500       -3.97024       75.02278
H         49.66855       -2.78405       73.70047
N         47.08694       -4.75982       73.59981
C         46.44826       -5.80149       72.78887
C         45.33314       -5.24502       71.92350
O         44.90331       -4.12978       72.14773
C         45.89375       -6.95081       73.67338
C         44.53233       -6.69092       74.30312
N         44.32670       -5.71581       75.21656
O         43.58886       -7.39102       73.96440
H         46.50288       -4.20535       74.22545
H         47.21432       -6.24852       72.12047
H         46.64123       -7.23592       74.44500
H         45.76420       -7.83239       73.00764
H         45.09190       -5.12100       75.54607
H         43.38439       -5.56150       75.60712
N         44.77860       -6.00254       70.94044
C         43.58572       -5.62640       70.19482
C         43.65996       -4.25843       69.54846
O         44.60011       -3.98831       68.81475
H         45.19618       -6.92297       70.73494
H         42.71239       -5.66221       70.88090
H         43.41594       -6.38730       69.40359
N         42.64716       -3.36016       69.74975
C         42.57834       -2.05811       69.09156
C         43.34321       -0.96679       69.89065
O         44.55013       -1.44006       70.40206
C         41.10032       -1.61435       68.94773
C         40.33670       -2.41960       67.92521
C         39.30266       -3.28606       68.31326
C         40.62896       -2.26966       66.55749
C         38.57553       -3.99324       67.34906
C         39.89236       -2.96678       65.59521
C         38.86168       -3.83181       65.98872
O         38.13725       -4.50503       65.07175
H         41.83645       -3.66372       70.31066
H         43.02316       -2.14365       68.07609
H         41.02067       -0.55404       68.62462
H         40.61877       -1.67579       69.94780
H         39.05883       -3.41511       69.35994
H         41.41170       -1.59387       66.23452
H         37.78149       -4.66053       67.65923
H         40.11808       -2.82762       64.54496
H         38.29100       -4.40779       64.12090
N         43.47752        0.27285       69.07556
C         44.70090        1.10606       69.06769
C         44.89203        1.84441       70.37860
O         45.13711        1.21572       71.39659
C         46.01005        0.36536       68.61477
C         47.23285        1.32159       68.50006
C         45.81085       -0.40747       67.29870
C         47.11202        2.43036       67.44892
H         43.19928        0.11013       68.07917
H         44.51003        1.87467       68.28873
H         46.30807       -0.37492       69.38089
H         48.13265        0.71586       68.25342
H         47.42385        1.79946       69.48351
H         46.75413       -0.91593       67.00531
H         45.04435       -1.19643       67.41921
H         45.49110        0.26577       66.47718
H         46.98190        2.00750       66.43227
H         46.27197        3.11561       67.67569
H         48.04496        3.03232       67.44855
N         44.86983        3.21097       70.39533
C         45.26498        3.99671       71.55955
C         44.33655        3.85389       72.75592
O         44.72764        4.27820       73.83517
C         45.39175        5.48681       71.19624
O         46.33752        5.66601       70.17341
H         44.66608        3.70762       69.51524
H         46.27250        3.64490       71.85045
H         45.73209        6.07004       72.07842
H         44.39775        5.89952       70.90035
H         45.83871        5.74279       69.31840
N         43.08100        3.33454       72.64945
C         42.18211        3.24305       73.79558
C         42.67934        2.18216       74.76862
O         42.87426        1.05692       74.33217
C         40.76313        2.89364       73.33540
H         42.73439        3.04535       71.72246
H         42.10779        4.24425       74.26532
H         40.39396        3.67068       72.63297
H         40.73341        1.91598       72.82368
H         40.07501        2.85739       74.20587
N         42.90501        2.41171       76.09683
C         42.68097        3.68137       76.77989
C         41.20898        4.07294       76.73279
O         40.38412        3.18585       76.90573
C         43.07915        3.57392       78.25551
H         43.25119        1.61640       76.65840
H         43.35216        4.42302       76.31707
H         42.92894        4.54926       78.76601
H         42.47633        2.79898       78.77707
H         44.14713        3.31347       78.33858
N         40.75517        5.35416       76.57335
C         41.57541        6.55838       76.47190
C         41.29794        7.28904       75.17150
O         42.23496        7.50643       74.41523
C         41.43713        7.45696       77.73159
C         40.08406        8.12063       78.04970
C         38.99476        7.14246       78.38103
O         39.14904        6.27939       79.40339
O         37.95623        7.13771       77.73962
H         39.73337        5.47827       76.56523
H         42.64900        6.31484       76.47181
H         42.17523        8.28260       77.62382
H         41.74936        6.85965       78.61704
H         39.78236        8.79121       77.21961
H         40.22720        8.76245       78.94545
N         40.03806        7.68664       74.83463
C         39.72523        8.41086       73.61974
H         39.24991        9.37838       73.88600
H         40.62580        8.62343       73.00652
H         39.01382        7.81669       73.00968
H         39.24990        7.46626       75.45702
Ca        44.30078       -1.65832       72.70325
O         41.91390       -3.17911       73.73555
H         41.54557       -3.93713       74.25405
H         42.07000       -3.54914       72.83062
O         41.58467       -0.49378       72.24017
H         41.50199        0.19395       71.53243
H         40.69059       -0.53007       72.66157

Ca 1.0



