%chk=apoCaM-CA-Ng.loop4.water5.frame711.chk
%nprocshared=20
%mem=10GB
%nosave
#b3lyp/svp scf=(tight,noincore,xqc) Test 
#IOP(5/87=12) Density=Current Pop=(MK,readradii) iop(6/33=2) iop(6/42=6)

apoCaM-CA-Ng.loop4.water5.frame711 

   -3  1 
C         98.46563       -7.36812        1.54764
C         99.46229       -8.31678        2.14796
O         99.09398       -9.44017        2.45790
H         97.61813       -7.24360        2.25538
H         98.91332       -6.36649        1.37255
H         98.08401       -7.76534        0.58530
N        100.75038       -7.91834        2.35784
C        101.76835       -8.70418        3.05557
C        101.97407      -10.05716        2.39970
O        102.00690      -11.07137        3.08699
C        101.37307       -8.86150        4.53414
C        100.99069       -7.54796        5.13261
O         99.69925       -7.20219        5.06521
O        101.81940       -6.78168        5.59460
H        101.03061       -6.97702        2.04138
H        102.72274       -8.13442        3.00570
H        102.14363       -9.36961        5.15084
H        100.46544       -9.50538        4.57801
N        102.03743      -10.15278        1.04572
C        102.10226      -11.44519        0.37068
C        103.47278      -12.08926        0.59376
O        104.43154      -11.35023        0.76852
C        101.67655      -11.33829       -1.12477
C        102.65055      -10.46611       -1.95681
C        100.21979      -10.82500       -1.19675
C        102.25081      -10.34357       -3.42783
H        101.93516       -9.28747        0.49865
H        101.33050      -12.07950        0.86016
H        101.67829      -12.36057       -1.56070
H        103.65967      -10.92815       -1.91509
H        102.72342       -9.43995       -1.54382
H         99.82203      -10.86816       -2.22963
H         99.56176      -11.46902       -0.57906
H        100.13027       -9.78202       -0.82719
H        101.28814       -9.80171       -3.53469
H        103.02018       -9.75557       -3.96966
H        102.16601      -11.34710       -3.89436
N        103.66379      -13.43837        0.72266
C        102.62734      -14.44602        0.53906
C        102.07586      -14.95490        1.85653
O        100.94138      -15.40214        1.84431
C        103.08292      -15.58577       -0.40485
C        104.19483      -16.45433        0.13651
O        104.01530      -17.65385        0.27698
O        105.40507      -15.93596        0.41819
H        104.60400      -13.75290        0.99947
H        101.76503      -13.98730        0.02268
H        103.41791      -15.14373       -1.36759
H        102.20623      -16.23734       -0.62010
N        102.74931      -14.85313        3.04144
C        102.17057      -15.31520        4.29508
C        102.09176      -16.82461        4.32894
O        103.13187      -17.46700        4.34470
H        103.68199      -14.41857        3.07097
H        101.17060      -14.84458        4.42361
H        102.80058      -14.99296        5.15158
N        100.88690      -17.45868        4.30518
C        100.73765      -18.91235        4.28841
C        100.37729      -19.42633        2.90003
O        100.22029      -20.63025        2.75557
C         99.74205      -19.37220        5.39323
C         98.45418      -18.58806        5.49739
O         97.65586      -18.55221        4.58037
O         98.16667      -17.93360        6.63923
H        100.03496      -16.88266        4.22006
H        101.70422      -19.41627        4.50772
H        100.25248      -19.26196        6.37233
H         99.50704      -20.45231        5.26446
N        100.27388      -18.59998        1.81605
C         99.90559      -19.06612        0.48749
C         98.47888      -19.58120        0.43956
O         98.06517      -20.08801       -0.59192
H        100.45696      -17.60475        1.92212
H        100.61902      -19.85646        0.17400
H         99.98460      -18.22319       -0.23640
N         97.65870      -19.43797        1.51746
C         96.27351      -19.85075        1.61721
C         95.42658      -19.13282        0.58750
O         94.54047      -19.73225       -0.00508
C         96.12069      -21.38764        1.63470
C         96.92842      -22.02198        2.78516
C         96.63480      -23.49371        2.93224
N         97.62140      -24.41741        2.84967
O         95.48907      -23.85561        3.15532
H         98.00666      -18.94032        2.33603
H         95.90464      -19.48417        2.60301
H         96.44087      -21.82734        0.66554
H         95.04426      -21.61577        1.79077
H         96.65940      -21.52972        3.74432
H         98.01221      -21.86370        2.60869
H         98.59889      -24.14044        2.67922
H         97.40684      -25.41899        2.97009
N         95.66055      -17.81111        0.34280
C         94.85551      -16.98743       -0.55080
C         94.31057      -15.74779        0.15026
O         93.37837      -15.16954       -0.39233
C         95.64794      -16.56792       -1.82314
C         97.01466      -15.94119       -1.49008
C         95.83568      -17.75251       -2.77794
H         96.46767      -17.37568        0.80894
H         93.95932      -17.56104       -0.87846
H         95.04205      -15.81589       -2.37692
H         97.69033      -16.68812       -1.01951
H         97.50761      -15.58169       -2.41780
H         96.89891      -15.08046       -0.80096
H         96.43021      -18.56148       -2.30671
H         94.84411      -18.15776       -3.07471
H         96.35141      -17.41519       -3.70314
N         94.85765      -15.23069        1.29533
C         94.35296      -14.01934        1.93039
C         94.07337      -14.24360        3.40693
O         94.28701      -15.33072        3.92614
C         95.35249      -12.85461        1.76139
C         95.60754      -12.49274        0.32265
N         96.87164      -12.31737       -0.12188
O         94.66721      -12.30278       -0.43496
H         95.68769      -15.66002        1.72147
H         93.39361      -13.70406        1.46220
H         96.30622      -13.08324        2.28336
H         94.92668      -11.94139        2.22054
H         97.67122      -12.42305        0.51900
H         97.04860      -12.03356       -1.09651
N         93.55028      -13.21893        4.13298
C         93.16610      -13.31587        5.53792
C         92.30713      -12.12518        5.94310
O         92.14738      -11.20619        5.15291
C         94.37425      -13.49024        6.49041
C         95.30345      -12.29653        6.60059
C         96.21726      -11.97325        5.58068
C         95.29143      -11.51938        7.77324
C         97.11169      -10.90527        5.74527
C         96.17224      -10.44834        7.92798
C         97.09105      -10.14396        6.92433
O         97.95476       -9.12866        7.11377
H         93.34344      -12.35482        3.61607
H         92.51063      -14.20960        5.63275
H         94.97126      -14.38999        6.23178
H         93.94940      -13.69498        7.49576
H         96.26190      -12.56179        4.67536
H         94.59893      -11.74199        8.57462
H         97.82790      -10.67672        4.96465
H         96.15176       -9.86252        8.83804
H         98.64273       -8.91759        6.47150
N         91.64730      -12.10831        7.13598
C         90.69702      -11.05505        7.46257
C         91.02342      -10.43024        8.81076
O         90.49982      -10.90035        9.81160
C         89.27324      -11.63866        7.39928
C         88.21108      -10.53087        7.39014
C         86.83679      -11.11902        7.27871
O         86.13914      -10.87234        6.30768
O         86.36503      -11.92009        8.25249
H         91.74530      -12.90533        7.78340
H         90.69981      -10.27723        6.68378
H         89.11099      -12.36015        8.23030
H         89.17009      -12.19631        6.44082
H         88.39717       -9.86859        6.51335
H         88.27240       -9.91602        8.31179
N         91.89662       -9.39157        8.96505
C         92.62518       -8.72994        7.88775
C         91.68924       -8.00124        6.93550
O         90.86318       -7.21680        7.38160
C         93.63335       -7.71058        8.46612
C         94.42155       -7.03839        7.32943
C         95.38649       -5.99965        7.79586
O         95.02694       -5.09478        8.52949
O         96.59288       -5.94391        7.21973
H         92.06769       -9.06579        9.93050
H         93.22312       -9.49046        7.34001
H         94.33551       -8.23161        9.15219
H         93.08799       -6.93364        9.04757
H         93.71844       -6.50548        6.65934
H         94.95430       -7.80731        6.72509
N         91.84127       -8.16385        5.58992
C         91.06229       -7.45928        4.59459
H         90.30033       -6.79191        5.04675
H         91.74556       -6.84142        3.97281
H         90.55265       -8.19495        3.93880
H         92.58239       -8.78848        5.24215
Ca        98.61439       -5.74653        6.31728
O         98.04119       -3.36036        8.18705
H         97.45711       -3.99208        8.67528
H         97.48586       -2.54910        8.07373
O         99.66275       -2.75046        5.40126
H         99.03336       -2.15738        4.91950
H        100.47544       -2.76203        4.83605
O         99.65674       -6.66077        8.75786
H        100.39726       -7.24355        9.05832
H         98.84100       -7.21170        8.86343
O        101.18512       -4.19819        7.63281
H        101.87822       -3.58886        7.27434
H        101.50732       -4.43679        8.53798
O         96.79378       -3.73776        4.88823
H         95.95882       -4.09796        5.27879
H         96.58385       -3.60131        3.93060

Ca 1.0



