%chk=apoCaM-CA-Ng.loop1.water1.frame898.chk
%nprocshared=20
%mem=10GB
%nosave
#b3lyp/svp scf=(tight,noincore,xqc) Test 
#IOP(5/87=12) Density=Current Pop=(MK,readradii) iop(6/33=2) iop(6/42=6)

apoCaM-CA-Ng.loop1.water1.frame898 

   0  1 
C         26.84533       22.30543       42.79839
C         25.49963       22.94504       42.96580
O         24.81081       22.60967       43.91937
H         27.46448       22.51230       43.69692
H         26.72203       21.20791       42.68778
H         27.37476       22.69764       41.90553
N         25.05847       23.89036       42.08487
C         23.76621       24.55106       42.24454
C         22.59677       23.49667       42.28405
O         21.90894       23.27943       41.08277
C         23.56925       25.80081       41.31148
C         24.49141       25.97302       40.09977
O         24.54103       25.07887       39.09284
O         25.20826       26.95917       40.03316
H         25.68428       24.15323       41.31225
H         23.79104       24.98464       43.27061
H         23.77377       26.69675       41.94228
H         22.50184       25.89201       41.02118
N         21.64770       23.75140       43.37848
C         20.63380       22.67686       43.47629
C         19.40868       23.07211       42.68005
O         18.88285       24.15564       42.89779
C         20.27476       22.38256       44.95074
C         19.24999       21.23696       45.07534
C         19.15136       20.66784       46.50130
C         18.78481       21.67995       47.59838
N         17.46192       22.26791       47.39547
H         22.21888       23.75922       44.25538
H         21.04750       21.71608       43.08800
H         19.89342       23.29578       45.45712
H         21.21320       22.06319       45.45551
H         19.57043       20.39033       44.42896
H         18.25696       21.57770       44.71118
H         20.13822       20.22754       46.76400
H         18.40653       19.84214       46.50066
H         19.55210       22.48188       47.65468
H         18.79441       21.14314       48.57309
H         17.25210       22.90497       48.19763
H         17.43983       22.82758       46.51379
H         16.73605       21.51579       47.36284
N         18.87308       22.21327       41.76429
C         17.68308       22.54969       40.98508
C         16.98726       21.31723       40.39494
O         17.56855       20.24123       40.39909
C         18.05236       23.58220       39.88505
C         19.19693       23.12194       39.02075
O         19.10787       21.97924       38.31421
O         20.21077       23.79688       38.94421
H         19.29970       21.27999       41.66951
H         16.94233       22.96596       41.70168
H         18.33558       24.54148       40.36786
H         17.19863       23.79266       39.21372
N         15.70099       21.35895       39.91946
C         14.85154       22.54376       39.91922
C         13.69958       22.40076       40.87792
O         13.93202       22.07994       42.03527
H         15.28490       20.48259       39.56883
H         14.50740       22.75965       38.88504
H         15.38044       23.44063       40.27151
N         12.43784       22.74868       40.49846
C         11.32209       22.78341       41.43816
C         10.88690       21.37646       41.79284
O         10.44681       20.65849       40.90423
C         10.14834       23.57881       40.82983
C          9.00152       23.71524       41.79212
O          7.89865       23.28329       41.49800
O          9.18359       24.32436       42.97961
H         12.29467       23.09634       39.53717
H         11.65005       23.33684       42.34730
H          9.80367       23.08672       39.89309
H         10.50133       24.60091       40.57015
N         10.97262       20.91004       43.07513
C         10.53611       19.56900       43.44117
C         11.31578       18.47449       42.73593
O         10.86586       17.33815       42.76003
H         11.33429       21.52732       43.81738
H          9.46476       19.47967       43.15564
H         10.60982       19.41451       44.53862
N         12.47038       18.74610       42.06257
C         13.15769       17.79622       41.19548
C         13.13197       18.36577       39.78206
O         12.81733       19.53956       39.63242
C         14.58842       17.56085       41.74299
C         15.40805       16.55199       40.93503
O         15.28155       18.78177       41.80123
H         12.86824       19.69342       42.11521
H         12.60744       16.82999       41.18119
H         14.46190       17.15053       42.77357
H         15.94226       18.70942       42.53903
H         14.87580       15.57960       40.87617
H         15.61386       16.93205       39.91358
H         16.38692       16.38787       41.43422
N         13.37522       17.58832       38.68636
C         13.32281       18.13640       37.32959
C         12.09481       17.65642       36.56553
O         11.82463       18.22202       35.51505
C         14.68124       17.92118       36.59777
C         14.77561       18.79275       35.31718
C         14.94164       16.43237       36.29185
C         16.19012       18.87176       34.74082
H         13.56265       16.58495       38.82177
H         13.18366       19.23615       37.40135
H         15.46838       18.28758       37.29495
H         14.48763       19.83589       35.57360
H         14.08416       18.42200       34.53179
H         14.17655       16.03917       35.58845
H         15.94260       16.28442       35.84105
H         14.92052       15.82161       37.21578
H         16.55209       17.88221       34.39997
H         16.19163       19.55597       33.86627
H         16.88861       19.27952       35.50311
N         11.27730       16.66217       37.02958
C         10.03023       16.29877       36.35979
C         10.16549       14.94811       35.68172
O         11.16539       14.26605       35.86957
C          8.85778       16.33535       37.37998
C          8.73176       17.70825       38.05191
O          7.64414       16.03775       36.73959
H         11.52583       16.14307       37.88452
H          9.81197       17.02196       35.54446
H          9.06537       15.57082       38.16682
H          7.02310       15.69369       37.43394
H          9.65532       17.96256       38.61348
H          8.53901       18.49421       37.29132
H          7.88689       17.69639       38.77356
N          9.19710       14.52467       34.82001
C          9.29166       13.28860       34.05724
C         10.13030       13.46916       32.79882
O         10.57465       12.46772       32.26121
C          7.86557       12.78066       33.71266
C          7.84989       11.44464       32.96132
O          7.19174       13.74640       32.94443
H          8.39466       15.14613       34.64055
H          9.78134       12.52070       34.69901
H          7.34031       12.63679       34.68692
H          6.22185       13.64050       33.12732
H          8.38867       10.66631       33.54051
H          6.79987       11.11649       32.81188
H          8.30921       11.54494       31.95589
N         10.36418       14.70283       32.25193
C         11.07944       14.86528       30.98237
C         11.38820       16.32474       30.66333
O         10.95883       17.22620       31.36604
C         10.28237       14.20586       29.81938
C          8.85272       14.76084       29.67604
C          8.06815       13.99328       28.60244
C          6.61934       14.49276       28.50805
N          5.86512       13.72936       27.51347
H         10.00170       15.53525       32.73348
H         12.06866       14.36769       31.08103
H         10.20857       13.11521       29.99845
H         10.82485       14.32336       28.85750
H          8.88764       15.84210       29.42021
H          8.31803       14.64194       30.64208
H          8.05246       12.91309       28.86862
H          8.56900       14.11081       27.61672
H          6.61265       15.56988       28.23000
H          6.12432       14.38248       29.49912
H          5.84093       12.71767       27.77906
H          4.88417       14.08971       27.47614
H          6.30176       13.83560       26.56920
N         12.18867       16.60707       29.59380
C         12.59099       17.95597       29.21910
C         13.34890       18.64231       30.35752
O         12.90347       19.70869       30.75842
C         13.38167       17.91976       27.88861
C         13.78401       19.31408       27.38860
C         14.51246       19.21648       26.07778
O         15.77988       19.66001       25.97507
O         13.96008       18.73837       25.09936
H         12.53957       15.82092       29.02798
H         11.67085       18.54719       29.00607
H         12.73010       17.44476       27.12151
H         14.28585       17.29275       27.97401
H         14.44835       19.80061       28.13464
H         12.87931       19.94497       27.25283
N         14.46072       18.13873       30.97365
C         15.08852       16.86891       30.67460
H         15.94095       16.70550       31.36794
H         14.37374       16.03467       30.82151
H         15.50356       16.85809       29.65256
H         14.87673       18.68910       31.74113
Ca        23.38669       23.24860       39.42880
O         22.86449       20.25197       40.18239
H         23.09336       20.12804       39.22687
H         23.54063       19.71845       40.67078

Ca 1.0



