%chk=apoCaM-CA-Ng.loop1.water3.frame1384.chk
%nprocshared=20
%mem=10GB
%nosave
#b3lyp/svp scf=(tight,noincore,xqc) Test 
#IOP(5/87=12) Density=Current Pop=(MK,readradii) iop(6/33=2) iop(6/42=6)

apoCaM-CA-Ng.loop1.water3.frame1384 

   0  1 
C         15.80226       79.18305       40.73734
C         15.42334       77.80353       41.18937
O         16.24399       76.89956       41.11880
H         16.84814       79.20727       40.36418
H         15.11896       79.52110       39.93164
H         15.72100       79.88164       41.59829
N         14.18679       77.58335       41.71278
C         13.78375       76.30010       42.27338
C         13.65464       75.23698       41.19262
O         12.85773       75.39109       40.27779
C         12.44806       76.39685       43.04073
C         12.51370       77.34185       44.21507
O         12.32844       76.87556       45.46429
O         12.70848       78.53475       44.04772
H         13.53782       78.38221       41.76304
H         14.54611       75.99491       43.02673
H         12.20876       75.38293       43.43488
H         11.62709       76.70764       42.36056
N         14.38534       74.09553       41.29559
C         14.28808       72.94927       40.39264
C         13.64056       71.74060       41.07493
O         12.66528       71.26577       40.50819
C         15.64814       72.61077       39.75296
C         16.08521       73.73870       38.80462
C         17.42042       73.43687       38.11803
C         17.77639       74.56087       37.13303
N         19.07660       74.32548       36.50821
H         15.03163       74.05446       42.08551
H         13.61121       73.19297       39.54081
H         15.53588       71.68523       39.14377
H         16.41949       72.42325       40.52768
H         16.17727       74.68943       39.37124
H         15.30377       73.86546       38.02146
H         17.35230       72.47565       37.56167
H         18.21387       73.34881       38.89127
H         17.80342       75.53474       37.67056
H         16.99400       74.62014       36.34256
H         19.27594       75.10069       35.83512
H         19.82506       74.31242       37.23859
H         19.07078       73.41782       35.98897
N         14.00497       71.17492       42.26849
C         15.04180       71.62129       43.19317
C         14.39937       72.45690       44.30173
O         13.18073       72.56454       44.35166
C         15.91579       70.43039       43.65952
C         15.14973       69.18476       44.03587
O         14.35567       69.12569       45.12012
O         15.26140       68.19075       43.33580
H         13.39055       70.41848       42.60988
H         15.75869       72.28380       42.69257
H         16.60613       70.73421       44.47547
H         16.54864       70.15192       42.78705
N         15.17734       73.17581       45.16112
C         14.64301       74.14428       46.11363
C         13.79635       73.51171       47.22821
O         14.57638       72.57786       47.89234
H         16.20262       73.10274       45.07967
H         14.04164       74.89896       45.56580
H         15.49506       74.67549       46.59298
N         13.37017       74.55672       48.16940
C         12.97418       74.13334       49.53828
C         13.23321       75.29261       50.48674
O         13.36800       76.41407       50.01567
C         11.47546       73.73787       49.61154
C         11.13102       72.40908       48.99706
O         12.08076       71.58388       48.52339
O          9.96697       72.04295       48.98645
H         12.66568       75.19457       47.73050
H         13.62177       73.30924       49.88974
H         10.87106       74.53979       49.13355
H         11.14492       73.67003       50.66582
N         13.33972       75.14880       51.84166
C         13.31276       73.90425       52.59930
C         14.51094       73.01943       52.32153
O         15.62608       73.51916       52.27337
H         13.48116       76.00849       52.39570
H         12.35424       73.36125       52.47976
H         13.38343       74.17374       53.67545
N         14.35770       71.66716       52.24052
C         15.47929       70.73944       52.10037
C         15.99580       70.70910       50.67277
O         15.19752       70.73462       49.75063
C         15.08357       69.32607       52.59967
C         16.25072       68.32725       52.51851
O         13.98403       68.83960       51.87819
H         13.41203       71.28026       52.38500
H         16.29768       71.05548       52.78661
H         14.79962       69.43983       53.67314
H         13.56279       68.13655       52.43964
H         15.94613       67.35187       52.95193
H         16.55833       68.15371       51.46594
H         17.12590       68.70539       53.08894
N         17.33445       70.56275       50.44269
C         17.99528       70.45430       49.14185
C         17.47534       69.26727       48.34933
O         16.35409       69.31426       47.87592
C         17.90418       71.77259       48.32009
C         18.30951       73.01895       49.14714
C         18.71778       71.68251       47.01386
C         19.72925       72.97965       49.71852
H         17.95254       70.49448       51.26579
H         19.07172       70.27203       49.35015
H         16.85382       71.92919       48.02209
H         17.60157       73.13563       49.99581
H         18.20407       73.92344       48.50906
H         18.34623       70.85477       46.37404
H         18.61252       72.62302       46.43166
H         19.79295       71.50258       47.21786
H         20.48543       72.90352       48.91190
H         19.91853       73.91399       50.28644
H         19.85104       72.13004       50.42122
N         18.26036       68.17578       48.13798
C         17.83041       67.03444       47.33608
C         17.74625       65.75564       48.14809
O         17.47156       64.73884       47.52794
C         18.76057       66.85946       46.10679
C         20.20606       66.50734       46.47593
O         18.75983       68.03242       45.33567
H         19.20110       68.15356       48.55522
H         16.80924       67.19941       46.92604
H         18.38241       66.01395       45.48264
H         17.89568       68.05337       44.84649
H         20.24301       65.56559       47.06368
H         20.79834       66.35668       45.54890
H         20.68238       67.31968       47.06054
N         17.95306       65.70249       49.50266
C         17.88557       64.45525       50.27362
C         16.47840       63.87295       50.15237
O         15.57394       64.32757       50.83981
C         18.30352       64.70250       51.74760
C         18.39698       63.40221       52.55073
O         19.56153       65.33007       51.76766
H         18.17802       66.57426       50.00563
H         18.62532       63.75270       49.82752
H         17.54476       65.37533       52.21443
H         19.61682       65.84543       52.61525
H         18.69499       63.63261       53.59646
H         17.42207       62.87408       52.57275
H         19.16627       62.73422       52.10696
N         16.21076       63.01041       49.12774
C         14.88555       62.63577       48.63284
C         14.03952       63.85525       48.26718
O         14.38945       64.97121       48.61229
C         14.14085       61.67073       49.56973
C         14.97166       60.39980       49.82018
C         14.19243       59.27939       50.52360
C         13.63128       59.68363       51.89270
N         12.99566       58.53971       52.54607
H         17.00544       62.67103       48.56488
H         15.05549       62.08719       47.67828
H         13.18956       61.37634       49.07447
H         13.89941       62.17224       50.53029
H         15.87560       60.66190       50.41187
H         15.30632       59.98483       48.84340
H         14.88813       58.42166       50.65442
H         13.35508       58.94672       49.87103
H         12.87671       60.49002       51.76369
H         14.45323       60.06374       52.53775
H         12.22738       58.15940       51.94639
H         13.70509       57.79179       52.72417
H         12.59226       58.84716       53.46004
N         12.92072       63.70946       47.50386
C         12.07128       64.83259       47.10270
C         12.86442       65.95936       46.44731
O         12.75317       67.07180       46.94323
C         10.92120       64.37317       46.17994
C          9.90401       63.49798       46.92595
C          8.84510       62.99742       45.98828
O          7.55734       63.34435       46.17200
O          9.14585       62.26122       45.06170
H         12.68492       62.76281       47.17190
H         11.60184       65.26697       48.01573
H         11.32629       63.82806       45.30409
H         10.37497       65.26613       45.80070
H          9.43375       64.10724       47.72963
H         10.39501       62.62104       47.39519
N         13.68295       65.82336       45.36476
C         13.98935       64.60453       44.65227
H         15.08657       64.43812       44.68730
H         13.50054       63.71253       45.07066
H         13.68162       64.72119       43.59222
H         14.15589       66.66662       45.01974
Ca        14.31368       70.72147       46.66360
O         14.39251       67.83898       49.28895
H         14.78938       67.47876       48.45888
H         14.76614       67.26536       50.00256
O         11.51581       68.50374       49.61775
H         11.36375       68.76093       50.56167
H         11.37078       67.52428       49.60042
O         10.88723       69.84627       46.35449
H         10.35637       70.03416       47.16835
H         10.31282       69.23894       45.82486

Ca 1.0



