%chk=apoCaM-CA-Ng.loop2.water4.frame248.chk
%nprocshared=20
%mem=10GB
%nosave
#b3lyp/svp scf=(tight,noincore,xqc) Test 
#IOP(5/87=12) Density=Current Pop=(MK,readradii) iop(6/33=2) iop(6/42=6)

apoCaM-CA-Ng.loop2.water4.frame248 

   -2  1 
C         45.55324        3.32842       93.65639
C         46.54835        2.40326       94.30046
O         47.67008        2.81242       94.56383
H         44.65843        3.43018       94.30575
H         45.99216        4.33532       93.49026
H         45.23810        2.91372       92.67515
N         46.19002        1.12240       94.58624
C         47.08715        0.15250       95.21084
C         48.28354       -0.15697       94.32394
O         48.08757       -0.53859       93.17780
C         46.33867       -1.15431       95.56882
C         45.83559       -1.94702       94.38724
O         45.00682       -1.47851       93.62394
O         46.29214       -3.19699       94.18011
H         45.22048        0.84554       94.37253
H         47.43685        0.57517       96.17873
H         45.48145       -0.91284       96.23362
H         47.03926       -1.79807       96.14481
N         49.55927       -0.06643       94.80493
C         50.71748       -0.40170       93.97861
C         50.87964        0.60481       92.85950
O         50.39336        1.71703       92.99550
C         51.99597       -0.46306       94.81878
H         49.70236        0.20079       95.79102
H         50.54999       -1.41479       93.54849
H         52.86085       -0.76067       94.18806
H         52.20840        0.52339       95.28346
H         51.87721       -1.21951       95.62446
N         51.54966        0.27720       91.71703
C         51.66506        1.17649       90.57167
C         53.13280        1.53038       90.36616
O         53.68322        1.34429       89.28961
C         50.99106        0.49193       89.35976
C         50.97965        1.30254       88.08901
O         50.23731        2.42075       87.93363
O         51.62933        0.90581       87.13487
H         51.97333       -0.66123       91.64291
H         51.13181        2.12780       90.76805
H         49.94091        0.22825       89.61043
H         51.54008       -0.45820       89.17082
N         53.82999        2.05243       91.41178
C         55.21721        2.47453       91.35150
C         55.37963        3.73160       90.53588
O         56.25239        3.78716       89.68142
H         53.35339        2.15098       92.32107
H         55.87698        1.65051       90.99933
H         55.53530        2.73969       92.38299
N         54.56459        4.79747       90.77702
C         54.70963        6.10461       90.14776
C         54.68956        7.14468       91.25008
O         53.69800        7.22204       91.96514
C         53.56407        6.34960       89.15167
C         53.54459        5.30194       88.06347
N         54.59654        5.14922       87.22487
O         52.56580        4.58198       87.93814
H         53.79627        4.67626       91.45530
H         55.67024        6.16467       89.59095
H         53.68247        7.35089       88.68457
H         52.59547        6.33765       89.69392
H         55.43100        5.74762       87.30522
H         54.57682        4.42775       86.48894
N         55.77227        7.92800       91.50628
C         55.82853        8.76834       92.69009
C         54.88699        9.95474       92.67287
O         54.34669       10.31284       91.63585
H         56.61725        7.84066       90.92093
H         56.85826        9.16965       92.81795
H         55.61188        8.13034       93.57369
N         54.72033       10.65408       93.83088
C         54.05413       11.95240       93.93217
C         52.57860       11.99457       93.51578
O         52.10059       13.09880       93.29604
C         54.24878       12.56544       95.35208
C         53.59212       11.74530       96.48166
O         55.61803       12.76741       95.61751
H         55.19307       10.27509       94.66378
H         54.58513       12.62007       93.21716
H         53.77303       13.56946       95.36726
H         56.01895       11.91058       95.91853
H         52.50649       11.65470       96.31753
H         54.01584       10.72219       96.55408
H         53.75120       12.25306       97.45649
N         51.78846       10.88550       93.40264
C         50.39186       10.93973       92.93113
C         50.20076        9.99353       91.74727
O         51.16248        9.34931       91.35014
C         49.38370       10.62346       94.08204
C         49.56705        9.19793       94.65857
C         49.45287       11.70897       95.17026
C         48.43828        8.78806       95.60759
H         52.18236        9.96958       93.66335
H         50.13751       11.95840       92.56340
H         48.35977       10.68967       93.65963
H         50.54295        9.11359       95.18230
H         49.55463        8.46518       93.82439
H         50.43143       11.69713       95.67679
H         49.29781       12.71362       94.72169
H         48.66121       11.57195       95.93338
H         47.46010        8.84360       95.08224
H         48.59767        7.74130       95.94030
H         48.40621        9.42995       96.51011
N         48.96938        9.81858       91.16597
C         48.72803        8.82319       90.12439
C         48.06518        9.41079       88.87318
O         47.69250        8.64247       87.99728
C         47.93928        7.63001       90.73512
C         48.07935        6.36199       89.91151
O         47.69209        5.16589       90.39230
O         48.68413        6.37626       88.85257
H         48.15592       10.33885       91.52431
H         49.70093        8.39559       89.80100
H         46.87710        7.89259       90.93364
H         48.41736        7.38829       91.71011
N         47.95569       10.75615       88.66246
C         47.44472       11.29023       87.40089
C         45.93845       11.06059       87.28028
O         45.22165       11.55639       88.13761
C         47.73647       12.80377       87.28343
C         47.34861       13.32962       85.91735
C         48.02565       12.88482       84.76606
C         46.30335       14.25793       85.77802
C         47.65403       13.34934       83.50139
C         45.93429       14.71981       84.50988
C         46.60733       14.26446       83.37290
H         48.33139       11.41214       89.36316
H         48.01327       10.79594       86.58826
H         48.82040       12.99902       87.43542
H         47.18418       13.33940       88.08683
H         48.83850       12.17369       84.84532
H         45.76605       14.61489       86.64721
H         48.17615       12.99712       82.62072
H         45.12309       15.42859       84.40769
H         46.31847       14.62065       82.39240
N         45.36475       10.38170       86.23595
C         43.92680       10.22326       86.04962
C         43.20897        9.58814       87.22475
O         42.21043       10.13266       87.67443
C         43.81633        9.31183       84.81827
C         45.02494        9.73070       84.02087
C         46.09036        9.82733       85.10862
H         43.49258       11.22368       85.82059
H         43.99069        8.24920       85.10127
H         42.84272        9.37645       84.28664
H         45.29013        9.06903       83.16950
H         44.82685       10.75607       83.62931
H         46.49351        8.83238       85.39799
H         46.89124       10.48101       84.71726
N         43.65248        8.41049       87.75104
C         42.93753        7.67188       88.79208
C         42.83248        8.41841       90.11897
O         42.12734        7.92684       90.99001
C         43.61161        6.30242       89.03800
C         43.56986        5.39498       87.79577
C         44.27327        4.09743       88.06030
O         45.46551        4.08950       88.32319
O         43.59795        2.93470       87.98943
H         44.51178        8.00437       87.35260
H         41.90022        7.49111       88.42976
H         43.08289        5.76792       89.85860
H         44.66498        6.47433       89.35496
H         44.06202        5.87320       86.92466
H         42.50896        5.19609       87.52891
N         43.48849        9.58939       90.35936
C         43.37552       10.32774       91.60146
H         42.98293       11.34409       91.38718
H         42.69270        9.83975       92.32838
H         44.37835       10.41978       92.06737
H         44.10636        9.98803       89.64564
Ca        48.66037        3.50172       89.16732
O         49.05597        4.77597       86.33423
H         49.79352        5.22970       86.81409
H         49.48948        4.00034       85.89841
O         45.78718        1.27239       89.71394
H         45.71639        0.57817       90.41626
H         45.46221        2.09825       90.15280
O         50.88182        4.72443       91.00072
H         50.61433        5.67331       91.08398
H         50.93301        4.56752       90.02483
O         47.85422        2.35610       91.66381
H         47.79577        1.38126       91.51486
H         48.79535        2.57692       91.46628

Ca 1.0



