%chk=apoCaM-CA-Ng.loop2.water4.frame724.chk
%nprocshared=20
%mem=10GB
%nosave
#b3lyp/svp scf=(tight,noincore,xqc) Test 
#IOP(5/87=12) Density=Current Pop=(MK,readradii) iop(6/33=2) iop(6/42=6)

apoCaM-CA-Ng.loop2.water4.frame724 

   -2  1 
C         73.70807      107.90606        9.55215
C         74.23703      109.04545        8.72724
O         73.89371      110.18727        8.99725
H         72.65261      107.70799        9.26605
H         74.29611      106.97978        9.37797
H         73.75246      108.15514       10.63230
N         75.01578      108.79397        7.63991
C         75.47177      109.83464        6.72643
C         76.53165      110.73295        7.35336
O         77.48550      110.24509        7.93907
C         75.95407      109.20817        5.40713
C         76.29485      110.26073        4.38610
O         75.38777      111.20092        4.05338
O         77.38975      110.26389        3.84854
H         75.20662      107.80816        7.39945
H         74.58828      110.44903        6.44175
H         75.11382      108.60696        4.99461
H         76.81860      108.53097        5.57817
N         76.42358      112.08206        7.19348
C         77.33578      113.09501        7.73330
C         77.25723      113.15441        9.25569
O         76.34028      112.55919        9.80371
C         76.86387      114.45148        7.16955
H         75.64082      112.40731        6.60765
H         78.37271      112.87137        7.39841
H         77.43521      115.33068        7.49612
H         76.89560      114.42774        6.06021
H         75.80976      114.62165        7.48387
N         78.10730      113.88910       10.04093
C         79.30577      114.60745        9.59754
C         80.41037      113.68437        9.13920
O         80.27338      112.47073        9.21362
C         79.78784      115.57747       10.69762
C         80.12631      114.99700       12.05017
O         80.17153      113.67767       12.33233
O         80.33997      115.77833       12.96172
H         77.86866      113.93925       11.04373
H         79.06533      115.25611        8.74235
H         78.96070      116.30555       10.84608
H         80.66393      116.16679       10.35206
N         81.55677      114.21986        8.63267
C         82.63581      113.41335        8.10428
C         82.28597      112.84695        6.75699
O         81.22100      113.14892        6.23461
H         81.67311      115.24377        8.60255
H         82.87649      112.59343        8.79889
H         83.53138      114.05854        7.97202
N         83.14512      112.03849        6.08086
C         84.43963      111.57896        6.59111
C         84.28374      110.33820        7.46559
O         83.16827      109.88843        7.67011
C         85.34959      111.23827        5.39497
C         85.63378      112.44795        4.54705
N         85.39799      112.42475        3.21683
O         86.10961      113.44963        5.06156
H         82.86228      111.74810        5.13155
H         84.94338      112.38087        7.17536
H         84.87743      110.43104        4.79091
H         86.33102      110.87113        5.74570
H         85.02667      111.57789        2.76269
H         85.61561      113.24679        2.63556
N         85.38218      109.68640        7.95496
C         85.30676      108.40417        8.63966
C         85.04372      108.49068       10.12668
O         84.88445      107.44452       10.74030
H         86.32213      110.03991        7.72756
H         86.30912      107.92173        8.57708
H         84.60457      107.72547        8.11166
N         85.14798      109.66986       10.80087
C         85.26042      109.72481       12.25613
C         84.02099      109.27679       13.00478
O         82.96185      109.87972       12.89790
C         85.74821      111.11649       12.73708
C         85.68201      111.24137       14.26647
O         87.08962      111.30723       12.35677
H         85.31840      110.53215       10.26447
H         86.08532      109.03610       12.54094
H         85.12146      111.93154       12.32292
H         87.15760      111.19774       11.37469
H         86.15741      112.18880       14.58949
H         84.62471      111.26261       14.61150
H         86.20011      110.38734       14.75339
N         84.16802      108.24586       13.88446
C         83.16781      107.80698       14.83578
C         83.06761      108.81281       15.97733
O         84.05529      109.02061       16.66887
C         83.55724      106.42020       15.43814
C         82.46488      105.96306       16.44388
C         83.77166      105.37829       14.31938
C         82.75465      104.63298       17.13314
H         85.07940      107.77134       13.91711
H         82.21265      107.66783       14.30272
H         84.52228      106.52482       15.98577
H         81.48518      105.89312       15.93137
H         82.37410      106.71959       17.25204
H         84.59444      105.67153       13.63554
H         84.08365      104.40370       14.74176
H         82.84773      105.25076       13.71944
H         82.74116      103.79421       16.40905
H         83.73585      104.67037       17.65161
H         81.95987      104.43899       17.88382
N         81.89593      109.44341       16.25283
C         81.67137      110.30731       17.39810
C         80.36433      109.97538       18.15070
O         80.11857      110.62557       19.15741
C         81.73057      111.75460       16.89593
C         80.67252      112.02828       15.88114
O         79.38369      112.05265       16.26107
O         80.97560      112.22536       14.71617
H         81.13993      109.37059       15.58379
H         82.50286      110.19056       18.12753
H         82.73095      111.89656       16.42667
H         81.62985      112.48394       17.72395
N         79.48342      108.99581       17.75061
C         78.31900      108.59659       18.54089
C         77.26791      107.86248       17.68128
O         76.99920      106.69773       17.94002
C         78.83582      107.68033       19.66863
C         77.85254      107.39283       20.77269
C         77.49422      108.41923       21.66084
C         77.36068      106.09294       20.98506
C         76.69811      108.14005       22.77410
C         76.55175      105.82100       22.09301
C         76.23651      106.83993       22.99680
H         79.68978      108.43018       16.92845
H         77.84088      109.49916       18.98079
H         79.71224      108.14576       20.16460
H         79.20030      106.73655       19.20488
H         77.86789      109.42502       21.51377
H         77.61583      105.28778       20.30674
H         76.45858      108.92879       23.47510
H         76.18852      104.81560       22.26346
H         75.63978      106.62165       23.87269
N         76.58775      108.47358       16.66354
C         75.51487      107.82897       15.89890
C         75.95392      106.57710       15.11752
O         75.18380      105.63523       15.00295
C         75.04496      108.93211       14.94056
C         75.37424      110.20339       15.70377
C         76.73049      109.86990       16.31274
H         74.70091      107.58002       16.61552
H         75.68240      108.93918       14.03011
H         73.97776      108.83538       14.64086
H         75.35056      111.13641       15.09946
H         74.64527      110.30267       16.53995
H         77.55795      109.95649       15.58145
H         76.91512      110.54587       17.17365
N         77.20341      106.52052       14.57418
C         77.79196      105.39274       13.83260
C         77.74946      104.13278       14.68310
O         77.41526      103.07224       14.17303
C         79.29028      105.59176       13.37940
C         79.67078      106.89112       12.61030
C         79.79268      108.07899       13.51004
O         79.93518      109.33279       13.03060
O         79.81070      107.89710       14.70789
H         77.74286      107.35117       14.74370
H         77.20068      105.23979       12.90289
H         79.52910      104.74050       12.70238
H         79.97690      105.48480       14.24480
H         78.95660      107.07544       11.78333
H         80.68998      106.78080       12.17828
N         78.04846      104.20075       16.01250
C         77.97308      103.07171       16.91446
H         77.00004      103.09330       17.45055
H         78.08943      102.10510       16.38188
H         78.78257      103.15591       17.67045
H         78.25722      105.11834       16.42885
Ca        80.18015      111.41778       12.12600
O         78.13617      110.46496       10.80665
H         77.20326      110.48559       11.13084
H         78.19205      109.68505       10.20601
O         81.33742      109.48025       10.38587
H         81.70457      109.66080        9.48993
H         81.87882      108.72704       10.72814
O         77.79085      111.67473       13.40868
H         77.69360      110.69379       13.48551
H         78.32604      111.92502       14.19566
O         82.69279      112.71811       11.41745
H         82.92494      113.56960       11.86359
H         83.47616      112.52004       10.85017

Ca 1.0



