%chk=apoCaM-CA-Ng.loop2.water4.frame501.chk
%nprocshared=20
%mem=10GB
%nosave
#b3lyp/svp scf=(tight,noincore,xqc) Test 
#IOP(5/87=12) Density=Current Pop=(MK,readradii) iop(6/33=2) iop(6/42=6)

apoCaM-CA-Ng.loop2.water4.frame501 

   -2  1 
C         64.81304       62.03817       35.78629
C         65.30889       63.44283       35.60121
O         66.41564       63.63299       35.11696
H         63.87464       61.89345       35.21074
H         65.56603       61.30018       35.43703
H         64.60878       61.85560       36.86287
N         64.52868       64.48968       35.98859
C         64.94715       65.88751       35.89528
C         65.10087       66.41496       34.46514
O         65.46081       67.57540       34.33385
C         63.98676       66.79015       36.70823
C         62.56166       66.83702       36.21654
O         61.66588       67.59163       36.88043
O         62.20262       66.20623       35.23460
H         63.62220       64.26883       36.43008
H         65.93860       65.97726       36.39348
H         64.38518       67.82799       36.71534
H         63.97870       66.43005       37.76013
N         64.86102       65.64858       33.35703
C         65.03783       66.13165       31.98474
C         64.75074       65.00251       31.00298
O         65.41044       63.97833       31.11775
C         66.48029       66.59794       31.71801
H         64.53614       64.68081       33.48348
H         64.38449       67.00791       31.83003
H         66.57029       66.93392       30.66158
H         66.76630       67.46091       32.34787
H         67.20402       65.77430       31.89261
N         63.85037       65.07093       29.98100
C         63.00856       66.20879       29.62981
C         61.65861       65.72690       29.13530
O         61.47054       64.52503       28.98802
C         63.73701       67.08579       28.59161
C         64.12459       66.32349       27.35055
O         63.26975       65.83740       26.62736
O         65.42528       66.17645       27.03219
H         63.82338       64.25939       29.34888
H         62.78009       66.81579       30.52512
H         64.66299       67.47614       29.06637
H         63.11152       67.95820       28.30776
N         60.64260       66.60787       28.91117
C         59.31332       66.15628       28.53358
C         58.34336       66.34052       29.67628
O         58.69607       66.98758       30.65372
H         60.79355       67.61469       29.08337
H         59.34147       65.08039       28.30693
H         58.96446       66.68608       27.62059
N         57.09729       65.78767       29.67799
C         56.54970       64.91571       28.63914
C         56.17839       63.56081       29.23073
O         56.34091       63.34963       30.42440
C         55.32319       65.60586       28.01425
C         55.73225       66.84467       27.25859
N         56.52347       66.74946       26.16270
O         55.33873       67.93987       27.62964
H         56.49363       65.97862       30.49365
H         57.27924       64.71071       27.83429
H         54.60317       65.86108       28.82355
H         54.80542       64.93935       27.29429
H         56.85009       65.83194       25.82450
H         56.80332       67.59279       25.64111
N         55.66716       62.58701       28.42419
C         55.23014       61.28129       28.89552
C         55.89542       60.13586       28.15988
O         55.42703       59.01593       28.31437
H         55.54079       62.78751       27.42103
H         54.14088       61.21812       28.68477
H         55.36984       61.14820       29.98955
N         56.97016       60.32137       27.33887
C         57.53673       59.26463       26.50336
C         58.94762       58.89743       26.94053
O         59.46324       59.46469       27.89560
C         57.52144       59.72808       25.01933
C         56.11004       60.05869       24.53126
O         58.34211       60.85919       24.86405
H         57.39489       61.25697       27.27082
H         56.93236       58.33382       26.58093
H         57.89341       58.89651       24.37905
H         58.79842       60.77973       23.98580
H         55.67710       60.90145       25.11031
H         56.14799       60.35332       23.46070
H         55.45230       59.16974       24.63045
N         59.63480       57.94762       26.24507
C         61.01046       57.55005       26.50270
C         61.84720       58.07430       25.35503
O         61.52929       57.79803       24.20521
C         61.12186       55.99631       26.58673
C         62.58913       55.48641       26.70639
C         60.24637       55.42688       27.71490
C         63.32324       55.88792       27.98782
H         59.17679       57.50373       25.43514
H         61.37945       57.98779       27.45658
H         60.73098       55.58032       25.63082
H         63.17957       55.85244       25.83942
H         62.58875       54.37624       26.64746
H         60.31445       54.31756       27.72418
H         60.55964       55.81629       28.70535
H         59.18205       55.69884       27.55697
H         63.38648       56.98915       28.08468
H         62.82217       55.46158       28.88054
H         64.35874       55.48647       27.96057
N         62.96766       58.79984       25.60276
C         63.85902       59.27374       24.55942
C         65.05026       58.34574       24.47078
O         65.40802       57.97592       23.36121
C         64.27665       60.74430       24.77080
C         63.14361       61.71098       24.49763
O         62.09241       61.83677       25.33026
O         63.19293       62.42372       23.50759
H         63.26042       58.93015       26.58196
H         63.37231       59.23309       23.55882
H         65.06941       60.96290       24.02118
H         64.72028       60.90954       25.77433
N         65.70546       57.90313       25.58109
C         66.83641       56.98726       25.49528
C         67.54839       56.95083       26.83657
O         67.65294       55.89214       27.43752
C         66.37848       55.57801       25.01538
C         67.55229       54.67502       24.69898
C         68.45311       55.02917       23.67751
C         67.75555       53.47283       25.40082
C         69.53946       54.20586       23.37195
C         68.84597       52.65064       25.09034
C         69.73735       53.01811       24.07835
H         65.40477       58.23875       26.50891
H         67.55569       57.39289       24.75646
H         65.78016       55.65548       24.08517
H         65.71826       55.12546       25.78806
H         68.31419       55.94257       23.11364
H         67.07542       53.17138       26.18752
H         70.22699       54.48976       22.58548
H         69.00160       51.72731       25.63345
H         70.58025       52.38235       23.83886
N         68.09014       58.08847       27.37166
C         68.84020       58.11501       28.61418
C         68.06714       57.70821       29.85492
O         68.71800       57.48523       30.86752
C         69.26064       59.58453       28.74961
C         69.39614       60.00693       27.30439
C         68.16077       59.36451       26.68782
H         69.71811       57.44521       28.46723
H         68.40796       60.17504       29.16156
H         70.15166       59.75557       29.38977
H         69.47719       61.10052       27.13105
H         70.30057       59.50550       26.88868
H         67.23822       59.94256       26.91573
H         68.32035       59.29004       25.59245
N         66.69677       57.66897       29.90321
C         66.01271       57.33982       31.15092
C         66.16329       55.86042       31.48516
O         65.88239       55.48554       32.61555
C         64.50112       57.67821       31.18992
C         64.09890       59.15889       31.07556
C         63.84214       59.64086       29.67823
O         62.57657       59.95212       29.33128
O         64.74629       59.79245       28.87535
H         66.15105       57.91674       29.07014
H         66.48694       57.94553       31.95692
H         64.18133       57.38746       32.21610
H         63.90501       57.06151       30.48727
H         64.80223       59.82363       31.62202
H         63.11357       59.24547       31.58434
N         66.54213       54.94989       30.54470
C         66.64809       53.53827       30.83282
H         67.41921       53.36883       31.61245
H         65.66777       53.14817       31.18034
H         66.94041       52.98853       29.91229
H         66.73297       55.24882       29.58227
Ca        62.12876       60.98679       27.39971
O         62.43050       62.30945       30.98259
H         63.38384       62.15277       31.19628
H         62.11343       62.92373       31.69043
O         59.38448       62.96823       27.03993
H         59.69470       62.10212       26.68006
H         59.38252       63.57988       26.26166
O         64.49794       62.52366       27.73270
H         64.66864       63.34699       27.21167
H         65.26396       62.45199       28.35480
O         59.62830       62.27440       29.98260
H         59.53869       62.76483       30.83818
H         58.72204       61.92090       29.80068

Ca 1.0



