%chk=apoCaM-CA-Ng.loop2.water3.frame133.chk
%nprocshared=20
%mem=10GB
%nosave
#b3lyp/svp scf=(tight,noincore,xqc) Test 
#IOP(5/87=12) Density=Current Pop=(MK,readradii) iop(6/33=2) iop(6/42=6)

apoCaM-CA-Ng.loop2.water3.frame133 

   -2  1 
C         28.02974       61.02169       -9.90042
C         27.23707       61.81812      -10.89540
O         27.61426       62.93827      -11.20936
H         28.92111       61.58823       -9.55657
H         27.39429       60.78274       -9.02207
H         28.36977       60.07352      -10.36920
N         26.11697       61.27947      -11.45165
C         25.31575       61.96481      -12.46287
C         24.55720       63.18151      -11.91649
O         23.91212       63.83831      -12.71388
C         24.31715       60.95328      -13.07947
C         23.55879       61.50604      -14.25549
O         24.15650       61.88544      -15.25011
O         22.21461       61.57985      -14.21755
H         25.86366       60.31534      -11.18146
H         26.00634       62.29405      -13.27173
H         23.60138       60.62119      -12.29502
H         24.87609       60.06120      -13.43717
N         24.54451       63.50982      -10.58746
C         23.76793       64.58517       -9.96079
C         24.20535       65.99909      -10.33320
O         24.73309       66.67241       -9.46253
C         22.26122       64.39139      -10.16259
H         25.07459       62.91961       -9.93195
H         23.94489       64.48945       -8.86344
H         21.70245       65.16122       -9.58817
H         21.97315       64.47655      -11.22945
H         21.95857       63.38875       -9.79373
N         23.95598       66.55257      -11.55607
C         24.29531       67.92688      -11.91535
C         25.24765       67.97960      -13.10577
O         25.51284       69.07443      -13.58394
C         22.99909       68.69398      -12.24047
C         22.05894       68.72095      -11.06702
O         20.94600       68.22942      -11.16062
O         22.43393       69.29930       -9.91070
H         23.45054       66.01393      -12.26628
H         24.79540       68.45711      -11.07583
H         22.49910       68.21910      -13.11296
H         23.24025       69.74654      -12.50581
N         25.84364       66.85665      -13.60953
C         26.78256       66.87112      -14.72272
C         27.92249       67.82654      -14.46267
O         28.17885       68.68850      -15.29192
H         25.66712       65.94217      -13.17087
H         26.25598       67.15877      -15.65925
H         27.18841       65.84500      -14.85800
N         28.59582       67.78121      -13.28189
C         29.60184       68.76882      -12.91413
C         30.90321       68.52557      -13.67008
O         31.48625       67.45707      -13.55108
C         29.81892       68.77566      -11.38398
C         28.60768       69.29856      -10.56239
N         28.30663       70.70012      -10.84567
O         27.44627       68.52270      -10.68794
H         28.30491       67.07736      -12.58586
H         29.23112       69.78027      -13.17799
H         30.66837       69.45426      -11.15232
H         30.09909       67.75841      -11.04040
H         27.84958       70.78314      -11.78214
H         27.61105       71.03269      -10.14106
N         31.40528       69.50232      -14.48018
C         32.61024       69.37900      -15.28777
C         33.88580       69.26480      -14.48117
O         33.99909       69.89570      -13.43931
H         30.88414       70.38849      -14.56349
H         32.71349       70.30949      -15.88805
H         32.51175       68.53997      -16.00898
N         34.95035       68.57610      -14.99468
C         36.26887       68.54328      -14.35307
C         36.27683       67.77244      -13.03903
O         37.28253       67.82791      -12.34342
C         37.36992       67.99633      -15.30668
C         37.17255       66.53225      -15.73493
O         37.50993       68.82916      -16.43173
H         34.82619       68.12885      -15.91353
H         36.55016       69.59572      -14.12365
H         38.33926       68.03822      -14.76227
H         36.71942       68.70117      -17.01623
H         36.23290       66.39429      -16.30731
H         38.02030       66.21693      -16.37931
H         37.15214       65.86897      -14.84908
N         35.20378       67.04159      -12.62948
C         35.12912       66.36563      -11.33973
C         34.00860       66.97922      -10.53111
O         33.30479       67.84783      -11.03396
C         34.90060       64.82796      -11.51687
C         33.61262       64.51593      -12.32994
C         36.14225       64.17213      -12.13570
C         33.20516       63.04340      -12.29068
H         34.37410       66.98725      -13.23499
H         36.05883       66.51866      -10.75421
H         34.78533       64.38041      -10.50744
H         33.73464       64.82853      -13.38853
H         32.76119       65.08238      -11.90350
H         36.31482       64.54960      -13.16144
H         37.03560       64.39314      -11.51288
H         36.03649       63.06947      -12.17284
H         33.97283       62.39334      -12.75390
H         33.03094       62.72449      -11.24059
H         32.25865       62.91183      -12.85720
N         33.74710       66.53139       -9.27373
C         32.51645       66.87793       -8.59959
C         32.73980       66.90063       -7.09770
O         32.09650       66.15130       -6.38640
C         31.47741       65.82836       -9.04355
C         30.10817       66.15830       -8.58784
O         29.19225       65.39462       -8.84823
O         29.87743       67.30691       -7.92081
H         34.31305       65.76280       -8.88318
H         32.17237       67.88795       -8.91849
H         31.77208       64.82353       -8.66668
H         31.43416       65.78472      -10.15155
N         33.64297       67.76201       -6.55421
C         34.08319       67.79394       -5.15515
C         33.73578       66.54010       -4.32141
O         34.13840       65.45327       -4.71342
C         35.61267       68.02379       -5.08989
C         36.44903       67.01629       -5.85034
C         37.10179       65.97464       -5.16994
C         36.62122       67.13441       -7.24331
C         37.89422       65.05992       -5.87122
C         37.42563       66.22618       -7.93642
C         38.05778       65.18732       -7.25267
H         34.05476       68.46346       -7.18710
H         33.63990       68.70098       -4.70342
H         35.90513       68.03301       -4.01641
H         35.86592       69.03480       -5.47824
H         36.98964       65.86539       -4.09878
H         36.15575       67.93882       -7.79599
H         38.38705       64.25500       -5.34261
H         37.56667       66.33078       -9.00305
H         38.67946       64.48571       -7.79348
N         33.04200       66.60609       -3.13804
C         32.74938       65.46332       -2.27079
C         32.02192       64.31334       -2.94459
O         32.38625       63.16972       -2.71129
C         31.86061       66.06271       -1.17506
C         32.42970       67.45316       -1.05171
C         32.60496       67.84152       -2.51534
H         33.70439       65.10477       -1.82270
H         30.81682       66.17905       -1.54649
H         31.84167       65.47235       -0.23322
H         31.83040       68.16762       -0.44963
H         33.44148       67.36022       -0.59049
H         31.64865       68.15996       -2.98655
H         33.36242       68.65252       -2.54495
N         30.99092       64.55017       -3.80454
C         30.22707       63.50146       -4.48431
C         31.14718       62.49996       -5.17929
O         30.97364       61.30801       -4.96629
C         29.23817       64.12660       -5.49822
C         28.09208       64.92691       -4.83059
C         27.23888       65.58375       -5.88545
O         26.07809       65.25182       -6.06252
O         27.81184       66.51163       -6.67048
H         30.76664       65.53507       -4.01141
H         29.62787       62.93065       -3.74012
H         28.76505       63.31528       -6.09561
H         29.81334       64.77144       -6.19405
H         28.48779       65.72313       -4.16637
H         27.48113       64.22925       -4.21788
N         32.17433       62.90751       -5.97466
C         33.10400       62.00694       -6.62597
H         34.12645       62.18593       -6.22883
H         32.84670       60.93972       -6.46430
H         33.10731       62.20977       -7.71723
H         32.34204       63.90585       -6.09904
Ca        27.28743       67.32763       -8.73637
O         28.00399       70.31326       -7.35544
H         27.91528       71.27245       -7.58508
H         28.01198       70.29431       -6.36582
O         24.91818       68.27004       -5.83014
H         24.26180       69.00786       -5.90273
H         24.41908       67.53850       -5.38775
O         25.36775       69.73759       -8.61887
H         25.05308       70.57583       -9.04024
H         24.53966       69.25195       -8.38001

Ca 1.0



