%chk=apoCaM-CA-Ng.loop4.water3.frame353.chk
%nprocshared=20
%mem=10GB
%nosave
#b3lyp/svp scf=(tight,noincore,xqc) Test 
#IOP(5/87=12) Density=Current Pop=(MK,readradii) iop(6/33=2) iop(6/42=6)

apoCaM-CA-Ng.loop4.water3.frame353 

   -3  1 
C         87.56942       75.74319       31.18218
C         88.52283       74.67229       30.74990
O         89.25289       74.18982       31.59345
H         86.89276       75.33078       31.96221
H         88.13775       76.59290       31.61451
H         86.95438       76.10848       30.33537
N         88.54676       74.22173       29.46245
C         89.38370       73.12411       28.98556
C         89.10852       71.84108       29.73942
O         90.02041       71.29537       30.32312
C         90.88753       73.49424       28.80576
C         91.71691       74.19084       29.87288
O         92.01733       73.68004       31.08740
O         92.24352       75.25059       29.57170
H         87.88560       74.63518       28.78820
H         89.06727       72.88307       27.94481
H         90.91034       74.17874       27.92749
H         91.43154       72.57722       28.48930
N         87.85911       71.28345       29.69019
C         87.40970       70.02474       30.30280
C         88.15744       68.82675       29.71613
O         87.57183       68.12270       28.90459
C         87.39191       70.10000       31.85499
C         86.81551       68.82422       32.52994
C         86.60719       71.34660       32.31081
C         85.34537       68.51888       32.21524
H         87.14678       71.79337       29.14450
H         86.34921       69.91240       29.98389
H         88.43573       70.20960       32.21726
H         86.90699       68.93979       33.63267
H         87.42347       67.94377       32.23791
H         87.09284       72.27438       31.94411
H         85.56707       71.33658       31.92499
H         86.57032       71.39710       33.41454
H         84.68107       69.34223       32.54910
H         85.19420       68.33706       31.13231
H         85.03738       67.60255       32.76125
N         89.46087       68.56500       30.02164
C         90.27167       67.61879       29.27264
C         89.99055       66.17049       29.66887
O         89.66297       65.40517       28.77349
C         91.76069       68.04266       29.31786
C         92.60169       67.28517       28.32756
O         92.34319       67.33881       27.13470
O         93.66917       66.57981       28.74423
H         89.93690       69.12649       30.73342
H         90.01020       67.74642       28.19577
H         92.19049       67.95138       30.33020
H         91.82567       69.11822       29.03598
N         90.06058       65.67705       30.94479
C         90.41356       66.45775       32.12279
C         90.32918       65.66253       33.42724
O         89.74553       64.58835       33.42209
H         89.84712       64.67509       31.06229
H         89.72153       67.31479       32.22992
H         91.42562       66.82389       31.96762
N         90.82976       66.11334       34.62317
C         91.65247       67.29935       34.83162
C         90.94211       68.55071       34.34302
O         91.34148       69.09615       33.32324
C         93.07718       67.07086       34.25486
C         94.02769       68.18166       34.60500
O         94.61003       68.79124       33.72287
O         94.27027       68.48561       35.89445
H         90.64583       65.53992       35.46182
H         91.83813       67.41222       35.92107
H         93.08705       66.93548       33.16259
H         93.48472       66.13702       34.69811
N         89.90508       69.12390       35.02084
C         89.44315       68.73950       36.34376
C         88.50534       67.56454       36.36405
O         88.16213       67.02074       35.32390
H         89.50833       69.98614       34.63405
H         88.85493       69.58576       36.76131
H         90.30517       68.59082       37.02500
N         88.00289       67.16681       37.56743
C         86.99892       66.12409       37.73302
C         85.67032       66.70037       38.22976
O         84.69636       65.96138       38.24735
C         87.56580       64.94977       38.56752
C         88.17874       65.29591       39.93786
C         87.18570       65.80182       40.94009
N         86.14868       65.03222       41.33870
O         87.33991       66.90802       41.42712
H         88.32647       67.66575       38.41031
H         86.74728       65.69151       36.73921
H         88.39403       64.50955       37.96985
H         86.79164       64.16060       38.67908
H         88.99959       66.03300       39.80530
H         88.63865       64.37750       40.36064
H         86.01573       64.08481       40.95836
H         85.48555       65.37938       42.04396
N         85.52970       68.02747       38.53865
C         84.23836       68.69652       38.71084
C         84.05573       69.31898       40.09186
O         83.02531       69.94426       40.30930
C         84.08298       69.78380       37.59940
C         84.13642       69.15091       36.19914
C         85.13479       70.90878       37.69573
H         86.36052       68.62823       38.56564
H         83.40383       67.97189       38.58504
H         83.08098       70.25407       37.71288
H         83.97284       69.92501       35.41923
H         85.12316       68.67464       36.01170
H         83.34274       68.38124       36.09616
H         86.16437       70.53363       37.52365
H         84.93151       71.67915       36.92295
H         85.09758       71.40452       38.68815
N         84.98876       69.18823       41.07452
C         84.87748       69.80162       42.39188
C         86.06441       70.70765       42.68895
O         86.08139       71.26416       43.77736
C         84.79978       68.70776       43.48000
C         83.55299       67.86612       43.37771
N         82.32791       68.41853       43.54179
O         83.64936       66.66625       43.17660
H         85.82355       68.62430       40.89042
H         83.96533       70.43441       42.46598
H         84.78995       69.17377       44.48989
H         85.70541       68.06562       43.41044
H         82.22128       69.42420       43.73777
H         81.48084       67.83318       43.49066
N         87.07974       70.93632       41.79328
C         88.20884       71.80005       42.14400
C         88.99956       72.27308       40.93377
O         88.91587       71.66334       39.88088
C         89.11192       71.10392       43.20038
C         89.80604       69.85147       42.68962
C         90.91312       69.95297       41.83139
C         89.37915       68.57219       43.08916
C         91.57592       68.81058       41.37401
C         90.04010       67.42593       42.62610
C         91.13882       67.54028       41.76868
O         91.76803       66.42767       41.33751
H         87.02755       70.53353       40.84907
H         87.77056       72.72907       42.57141
H         88.47830       70.83310       44.06911
H         89.88109       71.80240       43.59264
H         91.27630       70.91962       41.53272
H         88.53003       68.45774       43.75079
H         92.43222       68.91540       40.71886
H         89.69780       66.44560       42.93395
H         92.53837       66.46500       40.75206
N         89.80865       73.37313       41.06180
C         90.62776       74.00883       40.02520
C         89.82790       74.84316       39.01776
O         90.14885       76.01028       38.84185
C         91.58255       73.00641       39.33237
C         92.71354       73.73066       38.57944
C         93.70920       72.76452       38.00270
O         93.97863       72.79729       36.81391
O         94.34672       71.88804       38.80287
H         89.87521       73.79376       42.00074
H         91.28714       74.72957       40.56212
H         91.02649       72.33037       38.64638
H         92.07198       72.39647       40.11600
H         93.26229       74.37723       39.29799
H         92.29651       74.37298       37.77371
N         88.82402       74.30005       38.27681
C         88.17620       74.95635       37.14337
C         87.34917       76.18541       37.49846
O         86.87697       76.83024       36.57129
C         87.26780       73.94347       36.38954
C         87.95101       72.61652       35.98468
C         89.11965       72.79336       35.06562
O         90.09896       73.43166       35.41349
O         89.12238       72.17609       33.87488
H         88.56649       73.33967       38.46862
H         88.97604       75.29484       36.45296
H         86.85826       74.42294       35.47308
H         86.41208       73.68273       37.05022
H         87.19324       71.97564       35.49356
H         88.29600       72.04237       36.86413
N         87.11095       76.57386       38.78422
C         86.31791       77.74277       39.11945
H         85.44299       77.43363       39.72810
H         86.93602       78.45281       39.70675
H         85.93972       78.27765       38.22171
H         87.48767       76.02650       39.56962
Ca        90.89448       72.37099       32.52369
O         93.57680       71.09410       31.83524
H         94.12563       71.12242       32.65845
H         94.22184       71.25288       31.10141
O         92.02523       71.30295       35.35038
H         92.81900       70.71462       35.32661
H         92.34240       72.15544       34.96172
O         92.90110       74.59160       33.77759
H         93.12093       75.20819       33.03474
H         92.25715       75.09529       34.33580

Ca 1.0



