%chk=apoCaM-CA-Ng.loop1.water4.frame319.chk
%nprocshared=20
%mem=10GB
%nosave
#b3lyp/svp scf=(tight,noincore,xqc) Test 
#IOP(5/87=12) Density=Current Pop=(MK,readradii) iop(6/33=2) iop(6/42=6)

apoCaM-CA-Ng.loop1.water4.frame319 

   0  1 
C         43.65897      112.86982       46.27124
C         44.15557      113.63802       45.07925
O         45.35896      113.73182       44.88555
H         42.54787      112.85406       46.30954
H         44.01621      111.82058       46.21488
H         44.03314      113.33983       47.20329
N         43.26735      114.20509       44.22055
C         43.64719      114.92602       43.01063
C         44.18809      116.33375       43.29595
O         44.30133      117.08318       42.34673
C         42.42636      115.03005       42.05382
C         41.89731      113.67816       41.63032
O         41.35137      112.83641       42.52776
O         41.94000      113.34402       40.45859
H         42.26377      114.06813       44.41222
H         44.41056      114.34585       42.44301
H         42.74334      115.56855       41.13178
H         41.60756      115.61477       42.52438
N         44.53099      116.79644       44.53502
C         44.92297      118.19088       44.77454
C         46.35953      118.31102       45.25675
O         46.72248      117.50944       46.10698
C         44.00049      118.79363       45.84709
C         42.50868      118.83018       45.47836
C         42.22272      119.68205       44.23459
C         40.71972      119.94056       44.07429
N         40.44670      120.75115       42.88802
H         44.48621      116.17114       45.34952
H         44.82603      118.76708       43.85633
H         44.32739      119.83382       46.06098
H         44.11001      118.20808       46.78677
H         41.98642      119.28153       46.34906
H         42.10945      117.80273       45.32905
H         42.61634      119.16392       43.33495
H         42.72485      120.66622       44.34089
H         40.35728      120.48587       44.97426
H         40.16965      118.97738       43.99752
H         39.43104      120.99615       42.86545
H         41.00484      121.63632       42.91223
H         40.67482      120.20475       42.02738
N         47.26312      119.27363       44.85507
C         47.13058      120.42935       43.94486
C         45.76098      121.08083       43.84916
O         45.06546      120.82036       42.88131
C         47.71239      120.14870       42.54504
C         49.11744      119.65448       42.63229
O         49.99112      120.29457       43.19533
O         49.37200      118.43406       42.16376
H         48.19611      119.20498       45.29354
H         47.80905      121.21685       44.33233
H         47.69623      121.07505       41.93092
H         47.09097      119.37853       42.03600
N         45.32039      122.04972       44.69590
C         46.08939      122.60477       45.80184
C         45.40743      123.82917       46.39812
O         44.30838      124.16972       45.98243
H         44.39435      122.44453       44.47451
H         47.05835      122.97261       45.40289
H         46.27430      121.82444       46.57071
N         46.00916      124.62695       47.32232
C         47.30931      124.38875       47.93336
C         48.37829      125.23253       47.27173
O         48.18551      126.42240       47.06231
C         47.28033      124.62935       49.46073
C         46.90885      126.03107       49.88137
O         47.80913      126.80036       50.52182
O         45.78423      126.46427       49.68951
H         45.52085      125.50326       47.55073
H         47.60216      123.32412       47.81228
H         48.30065      124.41004       49.84792
H         46.57913      123.91526       49.94194
N         49.57128      124.65717       46.95829
C         50.67021      125.35636       46.32698
C         50.36063      125.66320       44.88903
O         50.49041      126.80503       44.47131
H         49.73035      123.66932       47.20920
H         51.55305      124.67957       46.31950
H         50.94713      126.26509       46.90518
N         49.99066      124.65053       44.05738
C         49.84950      124.81198       42.61561
C         48.44548      125.27383       42.25947
O         47.58353      125.32675       43.12811
C         50.23173      123.47662       41.91822
C         51.66861      123.05900       42.26412
O         50.13227      123.59071       40.52426
H         49.89691      123.70367       44.45866
H         50.56043      125.59554       42.26891
H         49.52278      122.69885       42.28373
H         49.94891      122.67987       40.17226
H         52.38643      123.82936       41.90983
H         51.80292      122.92225       43.35712
H         51.91007      122.09457       41.77175
N         48.16224      125.65817       40.98205
C         46.85607      126.12858       40.53640
C         46.25512      125.20873       39.47388
O         45.14715      125.48922       39.04281
C         46.94095      127.61774       40.06610
C         47.93408      127.82384       38.88848
C         47.29133      128.51331       41.27034
C         47.96388      129.25662       38.34752
H         48.92096      125.63481       40.28684
H         46.12744      126.10004       41.37728
H         45.92683      127.92123       39.72228
H         47.63640      127.16046       38.05044
H         48.96817      127.56210       39.19486
H         47.24070      129.58796       41.00427
H         46.55527      128.35618       42.08757
H         48.30721      128.28446       41.65591
H         48.65865      129.30970       37.48257
H         46.95275      129.56758       38.01145
H         48.33692      129.97109       39.10949
N         46.89223      124.07493       39.03800
C         46.29933      123.13777       38.08817
C         46.16881      121.78011       38.75227
O         47.17226      121.19633       39.13643
C         47.15678      123.02001       36.81114
C         47.27728      124.37063       36.10027
O         46.55382      122.09279       35.94346
H         47.82035      123.83372       39.40382
H         45.28988      123.48453       37.77673
H         48.17389      122.66146       37.09631
H         47.22907      121.85767       35.25491
H         47.89178      124.25829       35.18255
H         46.27155      124.74621       35.81402
H         47.77182      125.11346       36.75826
N         44.93804      121.22557       38.92971
C         44.73258      119.93438       39.58368
C         45.35058      118.77467       38.79721
O         45.77980      118.97865       37.66938
C         43.21422      119.72212       39.86910
C         42.33225      119.65640       38.61296
O         42.73992      120.78640       40.65080
H         44.12097      121.77719       38.63355
H         45.24816      119.97191       40.56238
H         43.06754      118.76298       40.41748
H         43.02971      120.61564       41.57966
H         42.64442      118.84458       37.93424
H         41.27752      119.47650       38.91651
H         42.35177      120.60689       38.04314
N         45.40440      117.51642       39.34089
C         45.85974      116.32786       38.61860
C         46.96911      115.52206       39.32393
O         47.57769      114.70121       38.65211
C         44.65759      115.38378       38.36901
C         43.40875      116.14856       37.89843
C         42.25645      115.22638       37.49975
C         40.97618      116.03988       37.25232
N         39.88158      115.17581       36.81409
H         45.01831      117.38740       40.27022
H         46.24708      116.64932       37.62725
H         44.38364      114.86493       39.31583
H         44.95664      114.61608       37.62324
H         43.65742      116.79901       37.03237
H         43.06803      116.77588       38.75004
H         42.05314      114.50090       38.30887
H         42.54467      114.66736       36.58388
H         41.16073      116.81768       36.47893
H         40.68113      116.55236       38.19711
H         40.12560      114.73183       35.89926
H         39.69482      114.43538       37.52885
H         39.01828      115.75290       36.69065
N         47.25302      115.63540       40.66137
C         48.27238      114.81984       41.34566
C         47.95510      113.33677       41.29034
O         46.89957      112.92855       41.75533
C         48.40942      115.24064       42.83053
C         49.36465      114.37865       43.70127
C         50.75367      114.08838       43.15718
O         51.09430      112.92638       43.00399
O         51.64803      115.05877       42.87902
H         46.72223      116.31334       41.22495
H         49.25825      115.00793       40.86689
H         47.41116      115.21175       43.32263
H         48.73270      116.28642       42.85911
H         48.86709      113.39940       43.87472
H         49.46121      114.87094       44.69307
N         48.88621      112.46654       40.80329
C         48.74062      111.02571       40.83836
H         49.56730      110.59610       41.44589
H         47.78032      110.70621       41.29334
H         48.80835      110.61835       39.80937
H         49.77335      112.83536       40.42851
Ca        51.05787      117.19822       42.90489
O         51.87192      119.45579       40.52747
H         52.18866      118.89772       39.77368
H         51.33901      120.17221       40.09995
O         54.28435      119.54991       42.46164
H         54.83147      120.07526       43.09799
H         54.57005      119.86769       41.56847
O         52.80392      119.89053       45.21549
H         52.15852      119.88100       45.96616
H         53.40074      120.65643       45.41030
O         53.46582      116.59166       40.84574
H         52.72251      116.00888       40.54790
H         53.92630      116.06923       41.54966

Ca 1.0



