%chk=apoCaM-CA-Ng.loop2.water2.frame895.chk
%nprocshared=20
%mem=10GB
%nosave
#b3lyp/svp scf=(tight,noincore,xqc) Test 
#IOP(5/87=12) Density=Current Pop=(MK,readradii) iop(6/33=2) iop(6/42=6)

apoCaM-CA-Ng.loop2.water2.frame895 

   -2  1 
C         15.54751      -11.49701       29.61663
C         14.05083      -11.55813       29.54787
O         13.44920      -12.36363       30.24414
H         15.97593      -11.69821       28.61201
H         15.86294      -10.48665       29.95125
H         15.94162      -12.25143       30.33034
N         13.37808      -10.73033       28.70285
C         11.92613      -10.73977       28.57418
C         11.28306      -10.29792       29.88229
O         10.44476      -11.01914       30.40176
C         11.48964       -9.83789       27.40046
C         10.03173      -10.01776       27.07544
O          9.18878       -8.97028       27.12924
O          9.61097      -11.11317       26.73527
H         13.92872      -10.08570       28.11331
H         11.60861      -11.77601       28.31526
H         12.06249      -10.12299       26.49053
H         11.71124       -8.77247       27.62618
N         11.67163       -9.13009       30.47931
C         11.16427       -8.62948       31.76180
C         11.90273       -7.33451       32.11783
O         13.12171       -7.39366       32.20989
C         11.40247       -9.64259       32.89586
H         12.39193       -8.57338       29.99289
H         10.07205       -8.47483       31.67342
H         10.85473      -10.58979       32.72580
H         12.48357       -9.87533       32.99796
H         11.03323       -9.22715       33.85764
N         11.30409       -6.11899       32.31064
C          9.86619       -5.86798       32.28480
C          9.53358       -4.41116       31.96658
O         10.42055       -3.57460       31.87956
C          9.21969       -6.34463       33.60532
C          9.83877       -5.72930       34.84016
O          9.77303       -4.40458       35.07657
O         10.37225       -6.45155       35.66815
H         11.93373       -5.32181       32.48805
H          9.42942       -6.41413       31.42274
H          9.33772       -7.44566       33.67757
H          8.12950       -6.13489       33.60333
N          8.24747       -4.07673       31.66299
C          7.84260       -2.76990       31.16944
C          6.57924       -2.30937       31.85396
O          5.54305       -2.32711       31.20458
H          7.53204       -4.82054       31.66998
H          7.59894       -2.90920       30.09315
H          8.64636       -2.00745       31.21940
N          6.52231       -1.90828       33.15308
C          7.66760       -1.71821       34.03407
C          8.45848       -0.49575       33.57282
O          7.86434        0.56459       33.43444
C          7.13672       -1.55871       35.48266
C          8.19380       -1.47958       36.54824
N          7.84167       -1.47470       37.85345
O          9.37072       -1.43918       36.24653
H          5.58368       -1.69731       33.53064
H          8.29474       -2.63281       34.02674
H          6.53041       -2.46387       35.70865
H          6.47888       -0.66681       35.56307
H          6.85175       -1.52594       38.13250
H          8.56155       -1.43978       38.58842
N          9.79972       -0.56922       33.31947
C         10.58642        0.54425       32.79178
C         11.58273        1.11809       33.78539
O         12.31891        2.01898       33.41012
H         10.29172       -1.45615       33.49998
H          9.93176        1.38552       32.47912
H         11.12342        0.18838       31.88655
N         11.61883        0.70054       35.07982
C         12.46046        1.27892       36.12265
C         13.30173        0.20235       36.79002
O         13.18729       -0.96620       36.45160
C         11.54595        1.97647       37.16958
C         10.91119        3.24706       36.59695
O         10.54196        1.08652       37.59126
H         10.97483       -0.03574       35.37155
H         13.16531        2.03196       35.70676
H         12.15343        2.29871       38.04439
H         10.24202        1.38151       38.48954
H         10.26563        3.72475       37.36473
H         11.71033        3.97024       36.32372
H         10.29806        3.02685       35.69917
N         14.15733        0.54608       37.79173
C         14.93062       -0.40971       38.57144
C         14.30969       -0.42681       39.94803
O         14.21053        0.62369       40.56924
C         16.43493       -0.01336       38.57529
C         17.24923       -0.94227       39.51400
C         16.97586       -0.06278       37.13393
C         18.73251       -0.58423       39.61838
H         14.22425        1.53824       38.06628
H         14.84936       -1.43446       38.14635
H         16.52898        1.02989       38.95324
H         17.15161       -2.00126       39.19125
H         16.84103       -0.84986       40.53737
H         16.39121        0.60960       36.47201
H         18.02740        0.28228       37.08532
H         16.91454       -1.09781       36.73339
H         19.25423       -0.73266       38.65214
H         18.85362        0.46878       39.95090
H         19.21703       -1.24851       40.36528
N         13.82375       -1.59223       40.46600
C         13.06240       -1.65112       41.70370
C         13.85035       -2.43290       42.73488
O         13.29785       -3.29700       43.40469
C         11.69724       -2.32781       41.43458
C         11.08345       -1.94639       40.11732
O         10.71714       -0.80804       39.87839
O         11.00363       -2.93015       39.19430
H         13.97299       -2.47091       39.95544
H         12.89624       -0.62180       42.08934
H         10.99640       -2.17724       42.28369
H         11.88323       -3.42236       41.34544
N         15.18477       -2.20577       42.87419
C         16.01382       -2.90601       43.83341
C         17.04474       -3.78728       43.13014
O         17.86567       -3.25745       42.39364
C         16.67637       -1.86282       44.75053
C         17.51817       -2.51424       45.81573
C         18.81839       -2.96440       45.52465
C         17.00365       -2.68786       47.10925
C         19.58676       -3.58317       46.51177
C         17.77278       -3.31475       48.09232
C         19.06315       -3.76185       47.79425
H         15.63815       -1.50520       42.27398
H         15.37948       -3.52925       44.49179
H         15.85125       -1.28881       45.22807
H         17.28853       -1.12868       44.18047
H         19.24244       -2.83140       44.53800
H         16.00221       -2.35335       47.35066
H         20.58730       -3.92459       46.28028
H         17.36580       -3.45596       49.08433
H         19.65757       -4.24602       48.55686
N         17.11724       -5.13765       43.36979
C         18.24017       -5.97642       42.97053
C         18.21093       -6.44791       41.52651
O         19.11001       -7.19743       41.16741
C         18.13968       -7.15789       43.94570
C         16.64231       -7.32184       44.07865
C         16.19873       -5.87120       44.22241
H         19.21219       -5.46658       43.15341
H         18.70421       -8.07002       43.65656
H         18.51389       -6.82341       44.94152
H         16.26063       -7.72105       43.11098
H         16.29836       -7.98668       44.89905
H         15.13792       -5.77628       43.90227
H         16.32654       -5.51496       45.26886
N         17.24569       -6.07754       40.63514
C         17.24873       -6.57236       39.25705
C         18.46249       -6.12210       38.43973
O         18.59074       -6.58841       37.31568
C         15.93113       -6.23849       38.52365
C         15.65212       -4.74096       38.32811
C         14.36585       -4.56716       37.57061
O         13.31896       -3.95549       38.14628
O         14.25661       -4.99559       36.43309
H         16.47253       -5.47966       40.95644
H         17.28707       -7.68411       39.30862
H         15.08867       -6.68616       39.09622
H         15.95648       -6.73174       37.52605
H         16.47205       -4.25427       37.75856
H         15.56712       -4.24066       39.31495
N         19.40058       -5.25398       38.92458
C         20.59060       -4.87456       38.18740
H         21.48918       -5.18718       38.76140
H         20.64353       -5.34847       37.18468
H         20.61241       -3.77294       38.05943
H         19.29774       -4.84137       39.86064
Ca        10.45650       -3.68676       37.12269
O         12.54449       -2.79298       34.50561
H         11.98920       -3.32224       33.88410
H         13.47151       -3.08605       34.32143
O          9.57952       -5.71067       39.05170
H         10.56822       -5.75654       39.09399
H          9.34874       -4.86476       39.51203

Ca 1.0



