%chk=apoCaM-CA-Ng.loop2.water3.frame266.chk
%nprocshared=20
%mem=10GB
%nosave
#b3lyp/svp scf=(tight,noincore,xqc) Test 
#IOP(5/87=12) Density=Current Pop=(MK,readradii) iop(6/33=2) iop(6/42=6)

apoCaM-CA-Ng.loop2.water3.frame266 

   -2  1 
C         15.81629       40.03481       14.83971
C         14.36914       40.33555       15.10057
O         13.52748       39.81063       14.38683
H         16.47830       40.57150       15.55045
H         15.99286       38.94340       14.94161
H         16.08011       40.34602       13.80682
N         13.99645       41.16631       16.11720
C         12.59970       41.49054       16.39022
C         12.02875       42.26260       15.21448
O         12.50099       43.35812       14.94062
C         12.48718       42.31228       17.69491
C         11.07321       42.62045       18.12014
O         10.11281       42.23595       17.47099
O         10.86671       43.32702       19.24730
H         14.73145       41.56600       16.72120
H         12.04901       40.53508       16.54311
H         13.04110       43.26943       17.57813
H         12.96389       41.73597       18.51725
N         11.04071       41.72311       14.44330
C         10.52765       42.37616       13.24189
C         11.67552       42.65599       12.29402
O         11.86624       43.80192       11.91302
C          9.47302       41.49690       12.56002
H         10.67783       40.79015       14.69419
H         10.03627       43.33515       13.52221
H          9.90206       40.51729       12.25981
H          8.62644       41.31468       13.25599
H          9.07798       42.00748       11.65571
N         12.53024       41.65114       11.94693
C         13.75555       41.83215       11.18172
C         13.44637       42.24687        9.75882
O         13.88671       43.29622        9.30865
C         14.72558       42.78180       11.92998
C         16.07517       42.84419       11.27254
O         16.56147       44.02099       10.83411
O         16.74075       41.83019       11.14290
H         12.33513       40.70133       12.29592
H         14.26091       40.84174       11.12001
H         14.86903       42.40776       12.96599
H         14.30682       43.80710       11.99377
N         12.70468       41.41428        8.97894
C         12.40887       41.67081        7.58246
C         12.97049       40.59777        6.66996
O         12.72087       40.69723        5.47701
H         12.34080       40.54119        9.39153
H         12.81540       42.65037        7.24954
H         11.30489       41.70448        7.46169
N         13.72963       39.55172        7.13069
C         14.24581       38.50146        6.25791
C         13.68633       37.16282        6.70249
O         13.93668       36.75459        7.82915
C         15.78601       38.47920        6.29162
C         16.32642       37.55449        5.22403
N         17.05094       36.45736        5.53918
O         16.09960       37.80501        4.04968
H         13.95322       39.48013        8.13389
H         13.93613       38.70156        5.20934
H         16.13295       38.18098        7.30634
H         16.18175       39.49780        6.08927
H         17.25578       36.21784        6.51458
H         17.40397       35.83442        4.79814
N         12.88429       36.43869        5.87524
C         12.26337       35.19221        6.28428
C         13.25678       34.06360        6.40816
O         13.84299       33.69955        5.39778
H         12.65129       36.81412        4.94319
H         11.52850       34.88219        5.50925
H         11.70214       35.35478        7.22866
N         13.46427       33.42896        7.60249
C         14.26925       32.21096        7.71658
C         15.59573       32.41941        8.42447
O         16.45409       31.56136        8.26839
C         13.45468       31.05600        8.35849
C         13.05308       31.31515        9.82337
O         12.31769       30.76489        7.58420
H         12.99889       33.80030        8.44318
H         14.55394       31.87631        6.69475
H         14.09358       30.14583        8.35933
H         11.67737       31.51702        7.68698
H         13.94875       31.48606       10.45064
H         12.38406       32.19485        9.91708
H         12.51562       30.43137       10.22697
N         15.85689       33.50950        9.20134
C         17.18739       33.77895        9.74799
C         17.63807       35.16981        9.35061
O         16.84206       35.94810        8.84641
C         17.23451       33.61990       11.30108
C         16.25012       34.57739       12.02353
C         17.01006       32.15076       11.69296
C         16.44526       34.61222       13.54130
H         15.10269       34.18383        9.39514
H         17.93190       33.07445        9.31594
H         18.26367       33.87608       11.63422
H         15.20012       34.29747       11.79258
H         16.41905       35.61501       11.66565
H         15.99118       31.81856       11.41940
H         17.74898       31.50317       11.17418
H         17.15662       31.99679       12.78065
H         15.74433       35.34953       13.98634
H         16.23982       33.62737       14.00520
H         17.48341       34.92549       13.78536
N         18.90571       35.56786        9.64102
C         19.36715       36.93974        9.51238
C         20.67540       37.03372        8.69614
O         21.22469       38.12101        8.59297
C         19.43859       37.44576       10.96751
C         19.66525       38.90927       11.14337
O         18.84867       39.83632       10.60451
O         20.56191       39.27678       11.87785
H         19.54390       34.89501       10.09358
H         18.60693       37.56797        8.99684
H         20.20732       36.86671       11.52739
H         18.45220       37.24555       11.44219
N         21.18820       35.94773        8.03089
C         22.37913       35.96631        7.16849
C         23.66245       36.21500        7.95986
O         23.94011       35.42465        8.85012
C         22.53382       34.58273        6.47417
C         23.81588       34.47472        5.67216
C         24.00929       35.22909        4.50329
C         24.84776       33.62758        6.11843
C         25.21740       35.14228        3.80054
C         26.05385       33.54968        5.41840
C         26.23962       34.30686        4.26044
H         20.67536       35.05678        8.08841
H         22.23809       36.72669        6.37279
H         21.65996       34.36303        5.82302
H         22.54629       33.80798        7.27323
H         23.22974       35.88652        4.14022
H         24.72833       33.04146        7.02126
H         25.36531       35.72715        2.90216
H         26.84640       32.90602        5.77864
H         27.17661       34.24647        3.72170
N         24.55748       37.20685        7.63850
C         25.87757       37.32937        8.24818
C         25.84633       37.99915        9.61353
O         26.90666       38.18577       10.19356
C         26.65250       38.15579        7.22006
C         25.58490       39.10755        6.72696
C         24.38748       38.17123        6.56817
H         26.38141       36.34081        8.34241
H         27.59062       38.61933        7.59409
H         26.91376       37.48996        6.36419
H         25.37363       39.82202        7.55452
H         25.84229       39.68549        5.81465
H         23.44610       38.75501        6.65020
H         24.43032       37.63656        5.59816
N         24.67227       38.34050       10.20809
C         24.56599       38.87740       11.55658
C         24.07377       37.78565       12.50716
O         23.97843       38.05508       13.69627
C         23.54987       40.03131       11.53864
C         23.95065       41.26580       10.71796
C         22.70192       42.05578       10.42205
O         22.32803       42.17129        9.26533
O         21.88254       42.45413       11.41393
H         23.78695       38.13646        9.72495
H         25.55129       39.22276       11.93915
H         23.28653       40.36146       12.56837
H         22.65578       39.59649       11.06115
H         24.38386       40.94726        9.74547
H         24.70391       41.86907       11.26611
N         23.75368       36.53164       12.06373
C         23.30942       35.45249       12.91798
H         22.29358       35.13287       12.60254
H         24.00233       34.59193       12.80012
H         23.28114       35.74135       13.98751
H         23.81684       36.30038       11.06896
Ca        19.77084       41.87324       10.89030
O         19.05579       43.43159        8.35683
H         18.67612       44.29455        8.05471
H         19.70102       43.18077        7.64885
O         19.86928       44.92718       11.25592
H         19.35214       45.16440       12.06617
H         20.17542       45.79529       10.89178
O         19.03527       42.75074       13.78764
H         18.31775       43.39988       13.99783
H         18.82970       41.96148       14.34893

Ca 1.0



