%chk=apoCaM-CA-Ng.loop3.water3.frame514.chk
%nprocshared=20
%mem=10GB
%nosave
#b3lyp/svp scf=(tight,noincore,xqc) Test 
#IOP(5/87=12) Density=Current Pop=(MK,readradii) iop(6/33=2) iop(6/42=6)

apoCaM-CA-Ng.loop3.water3.frame514 

   0  1 
C        -16.19429       57.61641       62.49634
C        -17.14189       56.87743       63.38970
O        -18.15498       56.38737       62.91177
H        -15.20683       57.10732       62.51884
H        -16.56387       57.62109       61.44875
H        -16.07658       58.66152       62.84776
N        -16.87263       56.76649       64.71873
C        -17.67727       55.97201       65.63440
C        -18.46544       56.91307       66.52262
O        -17.86657       57.64097       67.30319
C        -16.71883       55.05463       66.42308
C        -17.37319       54.08265       67.35035
O        -16.67949       53.38629       68.07384
O        -18.70684       53.96635       67.41022
H        -16.05008       57.26280       65.09693
H        -18.39298       55.34370       65.06044
H        -16.03104       55.69274       67.02021
H        -16.10957       54.46979       65.70572
N        -19.82015       57.02220       66.37651
C        -20.59341       58.04218       67.07463
C        -20.72610       57.69613       68.54732
O        -20.24171       58.44978       69.37969
C        -21.97281       58.24007       66.40382
C        -22.64908       59.53183       66.88928
C        -24.01571       59.73835       66.21872
C        -24.67839       61.07075       66.61492
N        -23.99005       62.23004       66.03864
H        -20.28873       56.44529       65.66028
H        -20.04949       59.00635       66.94875
H        -22.62588       57.35583       66.56554
H        -21.81781       58.34954       65.30705
H        -21.97165       60.37396       66.63900
H        -22.78944       59.50216       67.99140
H        -24.67779       58.90605       66.54258
H        -23.92438       59.69769       65.11107
H        -24.72111       61.16018       67.72303
H        -25.72288       61.06552       66.23288
H        -23.00594       62.30140       66.37805
H        -24.00031       62.16693       64.99419
H        -24.49511       63.10051       66.32204
N        -21.36872       56.55383       68.93656
C        -21.49872       56.14568       70.33885
C        -20.14017       55.95249       71.01998
O        -20.12006       55.92572       72.24278
C        -22.41596       54.89349       70.54094
C        -22.01653       53.71322       69.69949
O        -21.35687       52.67064       70.21744
O        -22.14727       53.75589       68.48726
H        -21.78568       55.98236       68.19515
H        -21.99226       56.98663       70.87409
H        -23.46949       55.13613       70.28763
H        -22.39038       54.60982       71.61603
N        -18.96920       55.84627       70.31978
C        -17.65534       55.82081       70.95128
C        -17.52889       54.71323       71.96637
O        -17.28696       55.00980       73.12793
H        -18.99175       55.81339       69.29214
H        -17.48639       56.79841       71.45515
H        -16.87083       55.70199       70.17259
N        -17.69471       53.41230       71.60028
C        -17.68782       52.30247       72.55535
C        -17.82071       50.94930       71.85188
O        -18.29140       50.87882       70.72754
C        -18.87016       52.48209       73.54707
C        -19.00944       51.37023       74.55306
N        -20.12220       50.59898       74.56790
O        -18.11684       51.16668       75.36231
H        -17.83737       53.22645       70.60172
H        -16.71027       52.31552       73.08744
H        -19.80351       52.55686       72.94705
H        -18.77294       53.42544       74.11982
H        -20.88448       50.75834       73.89218
H        -20.22339       49.83602       75.25242
N        -17.42160       49.81353       72.48951
C        -17.57641       48.47420       71.94593
C        -16.87996       48.31114       70.61709
O        -15.70403       48.63181       70.51517
H        -16.98661       49.89357       73.42017
H        -18.65796       48.23401       71.85078
H        -17.13284       47.75239       72.66458
N        -17.54789       47.77343       69.55536
C        -16.93633       47.59223       68.24168
C        -16.69039       48.92455       67.55452
O        -17.02444       49.96677       68.09844
C        -17.79726       46.64346       67.37058
C        -17.70557       45.21931       67.87444
C        -16.46881       44.54606       67.83341
C        -18.83244       44.54353       68.36853
C        -16.35944       43.22933       68.28338
C        -18.71965       43.22222       68.82114
C        -17.48139       42.56200       68.77955
O        -17.35710       41.28987       69.20911
H        -18.51541       47.44497       69.70040
H        -15.93656       47.12491       68.37206
H        -17.43877       46.61809       66.32093
H        -18.84461       47.01393       67.34994
H        -15.58532       45.03811       67.44558
H        -19.79498       45.03691       68.40678
H        -15.40025       42.72731       68.24319
H        -19.59433       42.71144       69.20267
H        -18.10635       40.78731       69.55850
N        -16.02188       48.93760       66.36398
C        -15.52861       50.11827       65.66371
C        -16.62941       51.05740       65.20200
O        -17.33900       51.59977       66.03163
C        -14.50045       50.91060       66.53616
C        -13.82879       52.07781       65.75645
C        -13.43663       49.99143       67.16010
C        -12.96678       51.65557       64.56068
H        -15.75447       48.03188       65.95043
H        -14.98604       49.74208       64.77145
H        -15.04419       51.37179       67.38856
H        -13.18591       52.65168       66.45841
H        -14.60617       52.77418       65.38583
H        -13.91035       49.24354       67.82939
H        -12.86338       49.44720       66.38365
H        -12.73871       50.59065       67.78329
H        -12.52948       52.55991       64.08858
H        -12.12984       51.00323       64.88192
H        -13.56685       51.13428       63.78853
N        -16.75636       51.37557       63.88427
C        -17.52962       52.52416       63.42210
C        -18.76017       52.16013       62.62548
O        -19.42742       53.07992       62.16981
C        -16.60037       53.42987       62.59411
O        -16.12297       52.74651       61.46695
H        -16.19459       50.86050       63.18920
H        -17.89927       53.12153       64.28292
H        -15.74417       53.75754       63.22396
H        -17.16682       54.31951       62.26235
H        -15.69820       53.43143       60.88727
N        -19.15835       50.86978       62.44178
C        -20.34623       50.52637       61.67019
C        -21.39926       49.86940       62.55884
O        -21.09579       49.57379       63.70562
C        -19.91289       49.60085       60.52386
H        -18.61532       50.10121       62.86217
H        -20.79297       51.44891       61.24673
H        -20.74986       49.30434       59.86569
H        -19.15768       50.11844       59.89479
H        -19.45682       48.67463       60.93420
N        -22.67280       49.59970       62.13539
C        -23.21895       49.97303       60.83464
C        -23.50131       48.73516       60.00160
O        -23.52395       47.64673       60.55999
C        -24.49082       50.80396       61.04055
H        -23.30322       49.10875       62.79005
H        -22.49363       50.59059       60.28712
H        -24.94297       51.10995       60.07780
H        -25.24849       50.21499       61.60055
H        -24.25289       51.72033       61.62176
N        -23.65634       48.76977       58.64404
C        -23.55385       49.95726       57.80062
C        -22.30798       49.83830       56.94380
O        -21.43913       50.69453       57.04577
C        -24.83944       50.10405       56.95640
C        -24.84882       51.32429       56.01270
C        -24.88414       52.66605       56.70181
O        -24.89530       53.68177       56.02557
O        -24.93719       52.77313       58.04310
H        -23.80392       47.86719       58.16546
H        -23.44152       50.87235       58.40289
H        -25.72251       50.16143       57.62977
H        -24.95588       49.19174       56.33252
H        -25.75861       51.25969       55.37804
H        -23.96389       51.27845       55.34275
N        -22.13734       48.79222       56.08930
C        -20.94188       48.64532       55.28808
H        -20.05087       48.56953       55.94801
H        -21.00781       47.72145       54.67538
H        -20.82797       49.51763       54.61033
H        -22.86805       48.07024       56.00885
Ca       -19.53884       52.58176       68.95660
O        -20.83331       52.29661       65.69148
H        -21.80369       52.26535       65.49673
H        -20.51602       53.12116       65.24469
O        -20.34248       49.44757       66.75011
H        -20.79183       48.58264       66.92498
H        -19.66321       49.24108       66.05999
O        -20.94689       49.66456       69.72575
H        -20.89118       48.69357       69.90991
H        -21.91534       49.86884       69.75490

Ca 1.0



