%chk=apoCaM-CA-Ng.loop3.water5.frame82.chk
%nprocshared=20
%mem=10GB
%nosave
#b3lyp/svp scf=(tight,noincore,xqc) Test 
#IOP(5/87=12) Density=Current Pop=(MK,readradii) iop(6/33=2) iop(6/42=6)

apoCaM-CA-Ng.loop3.water5.frame82 

   0  1 
C         71.09333       65.96528       12.47493
C         72.41206       66.53721       12.05262
O         72.55724       66.90486       10.89725
H         70.37946       65.94751       11.62354
H         71.23827       64.92862       12.84403
H         70.66350       66.58726       13.28804
N         73.42321       66.65530       12.96267
C         74.74434       67.21926       12.69072
C         75.61481       66.34359       11.78612
O         76.74015       66.74320       11.52929
C         74.64883       68.66675       12.13863
C         73.86647       69.58315       13.04238
O         72.68147       69.38202       13.25611
O         74.46595       70.65352       13.59726
H         73.23391       66.35797       13.93255
H         75.29053       67.27707       13.65925
H         74.18979       68.68385       11.12895
H         75.67721       69.07636       12.03479
N         75.18821       65.14412       11.28211
C         76.00770       64.31038       10.39978
C         75.39880       64.21380        9.01214
O         75.98180       63.54493        8.16468
C         76.12323       62.88124       10.96107
C         76.68295       62.81697       12.38716
C         76.77304       61.36893       12.90241
C         77.83834       60.53063       12.17156
N         77.88994       59.17073       12.70590
H         74.24873       64.79611       11.51027
H         77.02730       64.73800       10.28605
H         76.77915       62.30726       10.27494
H         75.11498       62.40861       10.95977
H         75.98876       63.37137       13.05537
H         77.68160       63.30136       12.44016
H         75.77618       60.88265       12.81238
H         77.04276       61.40322       13.97963
H         78.83168       61.01496       12.30167
H         77.62148       60.46723       11.08540
H         78.09952       59.19009       13.73005
H         76.97652       58.68857       12.53985
H         78.64511       58.63951       12.21478
N         74.22459       64.82577        8.70017
C         73.58159       64.68981        7.40715
C         74.47907       65.23910        6.31006
O         75.26361       66.14363        6.56281
C         72.21795       65.40618        7.44107
C         71.42343       65.17960        6.19669
O         71.03415       63.93542        5.87359
O         71.11129       66.11630        5.48423
H         73.74229       65.38834        9.40986
H         73.39980       63.60535        7.23352
H         72.38304       66.48366        7.60970
H         71.61440       65.02716        8.29445
N         74.40803       64.71926        5.05604
C         75.23697       65.15947        3.94698
C         75.09302       66.64064        3.68846
O         76.10390       67.32638        3.62991
H         73.73198       63.96359        4.87629
H         74.93195       64.60170        3.03624
H         76.30271       64.91274        4.14984
N         73.86005       67.20675        3.55873
C         73.64650       68.63424        3.32093
C         72.99844       69.33083        4.51977
O         72.67455       70.50580        4.41557
C         72.80998       68.83840        2.04071
C         71.35577       68.44951        2.19765
N         70.38470       69.38564        2.07781
O         71.04923       67.29185        2.43600
H         73.03808       66.59686        3.66853
H         74.62122       69.13972        3.14201
H         73.26694       68.27533        1.19791
H         72.86264       69.91736        1.77837
H         70.61901       70.36968        1.87934
H         69.39313       69.13004        2.19070
N         72.82584       68.68417        5.70598
C         72.24578       69.29042        6.89224
C         70.72883       69.34280        6.87069
O         70.10316       69.08613        5.85479
H         73.19468       67.73223        5.81326
H         72.69653       70.28544        7.09843
H         72.51348       68.65124        7.75687
N         70.08367       69.64527        8.03049
C         68.63279       69.71895        8.22399
C         67.94205       68.37359        7.98238
O         68.36415       67.37746        8.55443
C         68.37771       70.16155        9.68242
C         66.93211       70.43144       10.00733
C         66.37000       71.68930        9.73445
C         66.14999       69.44959       10.63449
C         65.04575       71.96167       10.09056
C         64.82326       69.71990       10.98043
C         64.26802       70.98001       10.71398
O         62.99466       71.25974       11.05695
H         70.68636       69.84216        8.84606
H         68.21430       70.49869        7.55060
H         68.94906       71.09224        9.89678
H         68.78279       69.39201       10.37688
H         66.96315       72.46515        9.26571
H         66.56764       68.47524       10.85443
H         64.62695       72.93995        9.88989
H         64.23079       68.95118       11.45979
H         62.42728       70.61210       11.49892
N         66.82025       68.29746        7.20161
C         66.03683       67.07019        7.01442
C         65.44431       67.02123        5.60569
O         65.68842       66.04804        4.90858
C         64.99535       66.86263        8.16357
C         64.38540       65.43272        8.09380
C         63.90678       67.94949        8.19639
C         63.48803       65.07739        9.28436
H         66.45917       69.17572        6.80436
H         66.73095       66.20237        7.10212
H         65.56050       66.92541        9.11918
H         65.21689       64.69376        8.09108
H         63.80642       65.29687        7.15598
H         63.24407       67.88646        7.31370
H         63.27137       67.84450        9.09887
H         64.36562       68.95746        8.23371
H         64.04689       65.18735       10.23812
H         62.57925       65.71164        9.31290
H         63.15444       64.02106        9.19474
N         64.71108       68.05579        5.09058
C         64.22213       68.06187        3.70910
C         63.08698       67.07280        3.47699
O         62.75807       66.82829        2.32421
C         63.75877       69.46737        3.29127
O         64.83168       70.37234        3.29263
H         64.55931       68.89098        5.67198
H         65.07313       67.78578        3.04613
H         62.93411       69.82878        3.94658
H         63.36163       69.43186        2.25403
H         65.06025       70.56349        4.23778
N         62.46165       66.44658        4.51517
C         61.45323       65.40422        4.37706
C         61.98088       64.26117        3.52895
O         61.24777       63.70870        2.71909
C         60.11008       65.95895        3.88136
H         62.74637       66.66775        5.47545
H         61.27269       64.99721        5.39665
H         59.34642       65.15038        3.87669
H         59.75512       66.75678        4.56781
H         60.19485       66.37567        2.85652
N         63.28664       63.89094        3.64347
C         63.88942       62.79689        2.90203
C         64.63084       61.88717        3.85688
O         64.73950       62.20479        5.03517
C         64.85080       63.35853        1.85281
H         63.89727       64.42659        4.27592
H         63.10588       62.20828        2.37609
H         65.65944       63.94227        2.33992
H         65.30628       62.53970        1.25707
H         64.29714       64.02403        1.15589
N         65.15439       60.70959        3.41476
C         65.89662       59.78191        4.26154
C         65.07399       59.23498        5.43148
O         65.64033       58.50190        6.23079
C         67.21942       60.41667        4.75945
C         68.11902       60.87114        3.59547
C         69.49464       61.22850        4.08419
O         70.16877       60.38807        4.65884
O         70.01937       62.44886        3.87070
H         65.02502       60.45105        2.42475
H         66.18725       58.90329        3.64385
H         67.76313       59.63458        5.33336
H         67.03653       61.26935        5.44646
H         67.65433       61.73398        3.07075
H         68.23495       60.03922        2.86916
N         63.74489       59.51396        5.59478
C         62.95972       59.03630        6.71492
H         62.12703       58.40683        6.33865
H         63.55903       58.44036        7.43403
H         62.53386       59.90717        7.25718
H         63.23651       60.08011        4.90422
Ca        69.00603       64.14664        2.78326
O         67.04108       66.21602        1.89473
H         67.43501       67.11852        1.79448
H         66.97474       65.86884        0.97080
O         72.26347       64.17270        2.51790
H         72.84784       63.92366        1.75899
H         72.31004       63.39385        3.12572
O         67.71222       64.03978        5.43458
H         67.27480       63.65964        6.23625
H         67.10253       63.80966        4.68881
O         68.16012       67.11379        4.35075
H         67.87162       68.05596        4.25833
H         69.07239       67.16727        4.71570
O         70.09874       65.20892        0.22814
H         71.08236       65.28572        0.30771
H         69.80278       66.10633       -0.06653

Ca 1.0



