%chk=apoCaM-CA-Ng.loop1.water2.frame53.chk
%nprocshared=20
%mem=10GB
%nosave
#b3lyp/svp scf=(tight,noincore,xqc) Test 
#IOP(5/87=12) Density=Current Pop=(MK,readradii) iop(6/33=2) iop(6/42=6)

apoCaM-CA-Ng.loop1.water2.frame53 

   0  1 
C         70.77670       70.17653       67.46181
C         70.49753       71.62731       67.71262
O         70.21741       72.34679       66.76396
H         71.80541       69.93114       67.79812
H         70.04659       69.55392       68.01908
H         70.69125       69.94276       66.37818
N         70.55902       72.12852       68.98064
C         70.31602       73.53421       69.29089
C         71.55943       74.17890       69.88684
O         71.46541       74.89997       70.87119
C         69.05259       73.69494       70.17225
C         69.12841       72.99620       71.50681
O         69.05306       73.71246       72.64446
O         69.21453       71.78041       71.57056
H         70.80674       71.48582       69.74690
H         70.12018       74.09330       68.35186
H         68.17012       73.30221       69.62167
H         68.88513       74.77783       70.35047
N         72.77467       73.95910       69.31055
C         74.01700       74.57892       69.75676
C         74.90554       74.87857       68.55604
O         75.17790       73.94379       67.81440
C         74.79630       73.64041       70.70605
C         74.19801       73.60647       72.12066
C         75.08867       72.79700       73.07806
C         74.70561       72.98124       74.55733
N         73.34672       72.53063       74.85460
H         72.82753       73.28165       68.53462
H         73.79768       75.50168       70.31201
H         75.82131       74.05429       70.82341
H         74.89035       72.62089       70.27092
H         73.17082       73.18717       72.10063
H         74.15639       74.65411       72.49296
H         76.13789       73.15559       72.98497
H         75.06514       71.72193       72.79629
H         74.80901       74.05457       74.83475
H         75.42478       72.40217       75.17850
H         72.64584       73.11327       74.34396
H         73.23677       71.52338       74.59824
H         73.17489       72.64161       75.88030
N         75.48702       76.09238       68.29547
C         75.37469       77.34273       69.05573
C         75.69969       77.12786       70.53374
O         74.86616       77.43593       71.37571
C         74.01284       78.02261       68.79378
C         73.77101       78.29323       67.32628
O         74.57135       77.95330       66.47049
O         72.61089       78.84193       66.94446
H         76.12748       76.12382       67.48588
H         76.12688       78.06112       68.66048
H         73.97336       78.98850       69.33762
H         73.18570       77.37958       69.16132
N         76.86549       76.55242       70.95297
C         77.95951       76.18285       70.06700
C         79.29680       76.66914       70.58689
O         79.37055       77.13311       71.71431
H         76.96531       76.33829       71.95730
H         77.79725       76.58957       69.06182
H         78.01298       75.07736       69.98493
N         80.43525       76.57407       69.83509
C         80.44964       76.15826       68.43363
C         79.77733       77.18527       67.50788
O         79.61183       76.88990       66.33488
C         81.88826       75.84095       67.96554
C         82.85299       76.99994       68.00469
O         82.46577       78.22782       68.40198
O         84.01379       76.81915       67.67428
H         81.32586       76.83237       70.28806
H         79.88925       75.19944       68.35570
H         81.85288       75.44747       66.92630
H         82.28963       75.03418       68.61778
N         79.33388       78.39361       67.97565
C         78.57558       79.32548       67.14757
C         78.08838       80.53716       67.93109
O         78.43495       80.69970       69.09129
H         79.50156       78.63480       68.95730
H         77.67715       78.79351       66.76701
H         79.18674       79.66073       66.28254
N         77.22212       81.41605       67.34710
C         76.65485       82.56388       68.05317
C         75.17310       82.33730       68.27761
O         74.43554       82.10653       67.33013
C         76.93889       83.90799       67.33226
C         76.41476       84.01254       65.89305
O         78.31287       84.20136       67.36533
H         76.91062       81.22937       66.38289
H         77.12374       82.67254       69.05500
H         76.42756       84.70074       67.92386
H         78.78877       83.48178       66.87614
H         76.91632       83.27464       65.23424
H         75.31821       83.86057       65.84752
H         76.62608       85.02996       65.50124
N         74.67721       82.37634       69.54667
C         73.27482       82.14680       69.86421
C         72.42665       83.22521       69.21642
O         72.56127       84.38948       69.56779
C         73.05951       82.11279       71.41396
C         73.85268       80.92809       72.03665
C         71.56093       82.00457       71.77271
C         73.87252       80.93387       73.56563
H         75.33103       82.57906       70.31626
H         72.97660       81.15261       69.46545
H         73.44329       83.06988       71.83429
H         74.91491       80.96700       71.72329
H         73.43459       79.96390       71.67434
H         71.12787       81.06299       71.37411
H         71.40441       82.03975       72.86884
H         70.99121       82.86203       71.36065
H         74.49611       80.08782       73.92451
H         74.31873       81.88141       73.93648
H         72.85919       80.80873       73.99394
N         71.49611       82.87920       68.28402
C         70.52525       83.80919       67.72208
C         69.11153       83.41605       68.15033
O         68.17467       84.08955       67.74547
C         70.67416       83.88995       66.18120
C         70.30324       82.58752       65.45613
O         71.99751       84.24658       65.87169
H         71.43297       81.88995       68.00007
H         70.70320       84.83573       68.11329
H         69.98560       84.69175       65.82330
H         72.00465       84.54902       64.92586
H         70.96088       81.74978       65.76277
H         69.24636       82.31798       65.65850
H         70.40871       82.73017       64.35960
N         68.88623       82.34870       68.98530
C         67.57985       81.90393       69.46169
C         66.74682       81.34879       68.31123
O         67.18646       81.39077       67.16960
C         66.89013       83.01287       70.31119
C         67.81333       83.47291       71.44913
O         65.70687       82.52257       70.88381
H         69.67823       81.79992       69.34256
H         67.75334       81.03823       70.14113
H         66.65074       83.88163       69.65917
H         65.16340       83.30789       71.15468
H         68.07482       82.61345       72.10430
H         68.74716       83.91874       71.04922
H         67.30346       84.24385       72.06392
N         65.54327       80.75581       68.54956
C         64.75201       80.13017       67.49968
C         65.48954       78.92590       66.93401
O         65.78279       78.92880       65.74639
C         63.30396       79.81314       67.97797
C         63.14639       78.86538       69.18534
C         61.67903       78.74876       69.61749
C         61.49144       77.83845       70.84653
N         62.07478       78.41004       72.06441
H         65.18508       80.74263       69.50842
H         64.61532       80.87445       66.68111
H         62.72545       79.40305       67.12116
H         62.84612       80.78806       68.25729
H         63.73630       79.25424       70.03380
H         63.48518       77.84485       68.92632
H         61.10576       78.31422       68.76974
H         61.25896       79.75292       69.84419
H         61.93060       76.83524       70.64934
H         60.39980       77.70674       71.01178
H         63.11284       78.49018       71.99020
H         61.65760       79.35022       72.25539
H         61.85939       77.78075       72.87101
N         65.82138       77.86147       67.72178
C         66.49793       76.67176       67.22557
C         65.50430       75.52938       67.15763
O         65.68206       74.50834       67.81083
C         67.68998       76.32059       68.13736
C         68.72322       77.43377       68.27583
C         69.34602       77.81846       66.97147
O         69.32795       78.98650       66.61777
O         70.01538       76.91713       66.22915
H         65.57702       77.87652       68.72014
H         66.87308       76.82408       66.19005
H         68.19147       75.40955       67.74514
H         67.30813       76.09656       69.15808
H         69.53050       77.07636       68.95209
H         68.25879       78.32776       68.74735
N         64.41796       75.63908       66.34773
C         63.44765       74.57658       66.21624
H         62.65320       74.87898       65.50203
H         63.94341       73.66013       65.83051
H         62.98346       74.36260       67.20197
H         64.27916       76.50028       65.79786
Ca        71.65004       77.95769       65.11721
O         74.67124       76.20984       64.00352
H         75.00907       75.51029       63.39052
H         75.16154       76.04956       64.84833
O         72.65809       74.93921       66.00427
H         71.97577       74.49138       66.56326
H         73.32290       74.23164       65.81040

Ca 1.0



