%chk=apoCaM-CA-Ng.loop1.water5.frame624.chk
%nprocshared=20
%mem=10GB
%nosave
#b3lyp/svp scf=(tight,noincore,xqc) Test 
#IOP(5/87=12) Density=Current Pop=(MK,readradii) iop(6/33=2) iop(6/42=6)

apoCaM-CA-Ng.loop1.water5.frame624 

   0  1 
C         67.44979       33.86558       12.98889
C         66.07049       34.44380       13.10625
O         65.43028       34.69256       12.09468
H         68.18176       34.54366       13.47592
H         67.47932       32.87839       13.49815
H         67.73532       33.72740       11.92485
N         65.54037       34.66232       14.33948
C         64.18961       35.17262       14.56407
C         64.01263       36.60969       14.05179
O         64.93824       37.16022       13.47150
C         63.83524       35.05298       16.06512
C         64.54821       36.05726       16.92221
O         65.88724       36.08506       17.05916
O         63.88876       36.90127       17.50003
H         66.11584       34.39905       15.15459
H         63.47612       34.50919       14.02773
H         64.03561       34.02342       16.43074
H         62.74218       35.21687       16.18142
N         62.84443       37.28703       14.27617
C         62.57736       38.65340       13.82898
C         63.72529       39.62650       14.06344
O         64.01234       40.38628       13.14740
C         61.24165       39.24077       14.36214
C         61.13146       39.50296       15.88524
C         60.70878       38.27704       16.72315
C         60.51549       38.61825       18.21276
N         61.79134       38.75423       18.91683
H         62.09332       36.79507       14.76942
H         62.45648       38.60536       12.72258
H         60.37418       38.63502       14.02047
H         61.14469       40.23298       13.86547
H         60.30720       40.23929       16.01597
H         62.05302       39.98815       16.25974
H         61.41471       37.43318       16.65910
H         59.72572       37.94361       16.32314
H         59.94783       37.79344       18.69781
H         59.91188       39.54688       18.31512
H         62.43081       39.41511       18.42674
H         61.61906       39.09883       19.88783
H         62.24184       37.81550       18.99138
N         64.46438       39.63011       15.21153
C         65.63507       40.48889       15.37909
C         66.92296       39.67297       15.35125
O         66.86405       38.46927       15.54012
C         65.49779       41.42608       16.61163
C         64.90959       40.91999       17.92132
O         63.94734       41.52039       18.37464
O         65.42550       39.92243       18.67402
H         64.23750       38.95631       15.95658
H         65.72902       41.15976       14.50521
H         64.81921       42.24714       16.28739
H         66.47180       41.89834       16.83867
N         68.14348       40.21793       15.04987
C         68.36970       41.57735       14.57343
C         67.89995       41.77737       13.13893
O         67.41766       40.84518       12.50960
H         68.97445       39.60900       15.11432
H         69.46277       41.77928       14.56990
H         67.90527       42.31574       15.25318
N         68.02502       43.00688       12.56250
C         67.60978       43.32723       11.19207
C         68.45782       42.61016       10.14005
O         69.32183       41.81817       10.49314
C         67.62634       44.86452       10.99107
C         68.99251       45.48316       11.11533
O         69.22910       46.39638       12.07592
O         69.88255       45.18607       10.33463
H         68.40162       43.76494       13.15252
H         66.55097       43.01358       11.05666
H         66.95338       45.31489       11.75286
H         67.20433       45.13595       10.00194
N         68.27831       42.87172        8.80920
C         69.05402       42.22369        7.76633
C         68.59923       40.80693        7.50289
O         69.23193       40.14037        6.69691
H         67.59390       43.58048        8.51251
H         70.13304       42.26230        8.03112
H         68.92685       42.77637        6.81002
N         67.47657       40.29131        8.08284
C         67.01202       38.93926        7.81133
C         67.97432       37.93080        8.40763
O         68.55826       38.17893        9.45316
C         65.57640       38.70858        8.34272
C         64.57304       39.64577        7.65674
O         65.17248       37.38812        8.07711
H         66.91047       40.88239        8.70602
H         66.96345       38.79412        6.70675
H         65.54056       38.90977        9.43960
H         65.41558       36.84008        8.86813
H         63.55112       39.45059        8.04373
H         64.81220       40.71247        7.84336
H         64.57125       39.47185        6.55823
N         68.14991       36.73948        7.78338
C         69.06882       35.69902        8.23419
C         70.50482       36.20247        8.15093
O         71.24838       35.99399        9.10014
C         68.80176       34.39765        7.41382
C         67.39427       33.85690        7.81680
C         69.88135       33.32720        7.66103
C         66.87922       32.70462        6.95847
H         67.59708       36.56967        6.92834
H         68.86493       35.43838        9.29864
H         68.82098       34.64894        6.32961
H         66.63455       34.66170        7.73212
H         67.41389       33.53449        8.88259
H         70.87778       33.70182        7.34641
H         69.92284       33.04716        8.73466
H         69.68676       32.41895        7.05608
H         66.78905       33.03179        5.90166
H         67.53386       31.81434        7.02341
H         65.87080       32.40972        7.32226
N         70.94381       36.92854        7.08306
C         72.30418       37.45504        6.97138
C         72.89938       37.06984        5.63816
O         72.18795       37.06772        4.64192
C         72.32986       38.99404        7.09866
C         71.84066       39.44665        8.47705
O         73.65070       39.44684        6.92635
H         70.27141       37.15813        6.33451
H         72.95693       37.06437        7.78438
H         71.67976       39.42349        6.30199
H         73.59991       40.39271        6.62969
H         71.88190       40.55350        8.54606
H         70.79750       39.12411        8.64894
H         72.48473       39.01911        9.27542
N         74.22912       36.79216        5.54304
C         74.88975       36.48241        4.28240
C         76.30138       35.98526        4.56929
O         76.59040       34.84652        4.22999
C         74.84724       37.69652        3.29912
C         75.35490       37.32124        1.90338
O         75.58289       38.77912        3.80765
H         74.78808       36.79471        6.41132
H         74.33068       35.64327        3.80864
H         73.79021       38.01291        3.16738
H         75.29026       39.59068        3.31491
H         76.41678       37.00353        1.93369
H         74.73515       36.49826        1.48614
H         75.26096       38.19559        1.22297
N         77.22148       36.76734        5.21338
C         78.56857       36.31137        5.53697
C         78.86644       36.49245        7.01686
O         78.62439       37.56493        7.55424
C         79.60306       37.06781        4.68399
C         81.00353       36.45370        4.87466
C         82.03581       37.03703        3.90986
C         83.38188       36.31620        4.08083
N         84.37302       36.81744        3.13164
H         76.96911       37.73075        5.47711
H         78.68589       35.23855        5.26972
H         79.60875       38.15442        4.92287
H         79.31402       36.94429        3.61708
H         80.93640       35.36040        4.67786
H         81.34919       36.60383        5.92095
H         82.15791       38.12551        4.09906
H         81.67992       36.88901        2.86677
H         83.24108       35.22454        3.91037
H         83.75579       36.46040        5.11914
H         85.26917       36.29623        3.26871
H         84.04009       36.66261        2.15210
H         84.54194       37.83638        3.29315
N         79.51345       35.50844        7.70473
C         79.96369       35.66644        9.08165
C         78.79113       35.65559       10.05854
O         78.65017       36.63683       10.77443
C         81.07756       34.64221        9.40546
C         81.65335       34.81967       10.81885
C         82.83380       33.91548       11.03487
O         84.04082       34.44122       11.32021
O         82.70753       32.70385       10.95533
H         79.78635       34.65485        7.19367
H         80.47898       36.65236        9.16398
H         81.89941       34.81090        8.67306
H         80.73932       33.60033        9.27114
H         80.87596       34.59021       11.57876
H         81.98244       35.87286       10.95539
N         77.88863       34.63661       10.17626
C         77.87964       33.43066        9.37665
H         77.77513       33.67896        8.30125
H         78.78473       32.82574        9.55637
H         77.01130       32.80102        9.66466
H         77.13281       34.73805       10.87194
Ca        66.44215       38.01212       18.08264
O         64.76909       36.84699       20.67966
H         64.11057       37.52225       20.98090
H         64.24339       36.21786       20.12478
O         68.05670       35.85155       20.17863
H         67.53353       35.05553       20.44847
H         68.98492       35.51920       20.08662
O         69.18776       36.90525       17.40218
H         69.34376       37.09712       16.44364
H         69.75749       36.11908       17.59559
O         68.38544       40.23048       18.45913
H         69.34857       40.30183       18.24435
H         68.20810       40.98117       19.07982
O         67.39686       38.80722       21.18954
H         67.08997       38.36062       22.01820
H         66.87390       39.64710       21.15215

Ca 1.0



