%chk=apoCaM-CA-Ng.loop2.water7.frame1254.chk
%nprocshared=20
%mem=10GB
%nosave
#b3lyp/svp scf=(tight,noincore,xqc) Test 
#IOP(5/87=12) Density=Current Pop=(MK,readradii) iop(6/33=2) iop(6/42=6)

apoCaM-CA-Ng.loop2.water7.frame1254 

   -2  1 
C         43.40006       63.52367      115.27901
C         44.88325       63.36058      115.08780
O         45.56882       63.16404      116.08118
H         42.83585       62.73363      114.75226
H         43.14370       63.44571      116.35836
H         43.07950       64.52361      114.92272
N         45.49965       63.45060      113.87224
C         44.83313       63.68396      112.58737
C         45.77040       64.39731      111.59698
O         46.84179       64.83309      111.99570
C         44.17318       62.38624      112.05258
C         45.09493       61.22002      111.85206
O         44.63543       60.16432      111.44803
O         46.39918       61.29294      112.16725
H         46.52698       63.36435      113.87550
H         44.01151       64.41828      112.73118
H         43.64117       62.59342      111.10351
H         43.39693       62.05253      112.76648
N         45.38247       64.63788      110.30690
C         46.05062       65.56780      109.39454
C         47.55057       65.32737      109.22642
O         48.33181       66.21872      109.53430
C         45.75580       66.99802      109.87358
H         44.50101       64.23116      109.96569
H         45.57619       65.47483      108.39235
H         46.17064       67.73938      109.15882
H         44.65690       67.15179      109.93596
H         46.19254       67.17966      110.87875
N         48.02930       64.14549      108.74621
C         49.46572       63.86904      108.61601
C         49.84216       63.32324      107.24477
O         48.97383       63.15845      106.39895
C         49.89911       62.93746      109.75843
C         49.21483       61.60386      109.81133
O         48.40343       61.25196      108.97061
O         49.50369       60.78735      110.83308
H         47.34938       63.40234      108.52852
H         50.05465       64.80267      108.75068
H         49.68102       63.46377      110.71119
H         50.99478       62.76575      109.72012
N         51.14960       63.03617      106.95275
C         51.58142       62.53388      105.65638
C         51.04305       61.15661      105.32756
O         51.14649       60.76181      104.17468
H         51.87750       63.21513      107.66006
H         52.69156       62.48693      105.60703
H         51.23915       63.25289      104.88139
N         50.47097       60.35619      106.27267
C         49.83241       59.08684      105.94275
C         48.61955       59.36189      105.07531
O         48.51615       58.77703      104.00582
C         49.45865       58.30619      107.21781
C         50.70995       57.86852      107.95225
N         50.94560       58.24846      109.22697
O         51.52110       57.15339      107.38249
H         50.46813       60.66279      107.25606
H         50.53724       58.43789      105.37422
H         48.90025       57.38668      106.93802
H         48.80012       58.92235      107.86466
H         50.27257       58.83416      109.72953
H         51.80274       57.94915      109.71569
N         47.70012       60.30569      105.43728
C         46.58868       60.70201      104.58172
C         47.06443       61.27630      103.25546
O         48.26461       61.41690      103.06471
H         47.81043       60.79295      106.33861
H         45.98994       61.48164      105.10038
H         45.93761       59.83569      104.41657
N         46.20647       61.67830      102.27488
C         44.75236       61.56905      102.32639
C         44.31747       60.15778      101.96781
O         44.70568       59.66490      100.91747
C         44.12203       62.58659      101.34389
C         42.58746       62.53494      101.37239
O         44.54213       63.87658      101.71073
H         46.62567       62.11096      101.43539
H         44.38821       61.86237      103.33575
H         44.47450       62.35450      100.31071
H         44.43038       64.45738      100.91381
H         42.17265       63.29545      100.67807
H         42.21768       61.53957      101.04754
H         42.21120       62.74346      102.39675
N         43.45899       59.47671      102.77806
C         42.94412       58.13938      102.49213
C         41.42295       58.21718      102.33471
O         40.77662       58.69134      103.25897
C         43.33885       57.17691      103.65208
C         44.87549       56.99059      103.67751
C         42.64077       55.80959      103.51651
C         45.38702       56.29672      104.93952
H         43.13110       59.93868      103.64051
H         43.40534       57.74200      101.57201
H         43.00309       57.63985      104.60763
H         45.36378       57.97341      103.64358
H         45.20870       56.43585      102.77349
H         42.89021       55.13756      104.36026
H         41.54156       55.93988      103.54796
H         42.92284       55.31484      102.56259
H         46.49588       56.25049      104.90713
H         45.08656       56.87677      105.83856
H         45.00480       55.26103      105.02356
N         40.74452       57.73612      101.24366
C         41.36736       57.13338      100.07019
C         40.38708       56.22523       99.33351
O         39.28707       56.65645       99.02455
C         41.87620       58.25096       99.13734
C         42.76048       57.75497       98.02043
O         43.21036       58.55379       97.21576
O         43.09616       56.45439       97.91098
H         39.71573       57.79990      101.25918
H         42.21214       56.49428      100.39308
H         42.47307       58.97927       99.72103
H         41.00379       58.79428       98.71169
N         40.76465       54.95509       98.99477
C         39.94509       53.98870       98.25625
C         40.75941       52.71070       98.05961
O         41.87496       52.81142       97.57125
C         39.41872       54.54630       96.89776
C         40.45090       54.98310       95.87987
C         40.66619       56.35205       95.63701
C         41.16708       54.03865       95.12201
C         41.59734       56.76398       94.67833
C         42.09522       54.45443       94.16318
C         42.31337       55.81601       93.94408
H         41.71314       54.66055       99.27226
H         39.04072       53.77148       98.85900
H         38.75478       55.40489       97.11392
H         38.74802       53.80068       96.41763
H         40.11844       57.10301       96.19251
H         40.99811       52.97864       95.25824
H         41.76157       57.81918       94.50249
H         42.64052       53.71957       93.58499
H         43.03106       56.13595       93.19976
N         40.31055       51.46915       98.42262
C         38.99336       51.14580       98.94316
C         38.86829       51.37694      100.44535
O         37.85187       50.97989      100.99469
C         38.87815       49.64896       98.61455
C         40.29120       49.16477       98.85874
C         41.10191       50.27159       98.19633
H         38.17333       51.66938       98.40378
H         38.08018       49.10002       99.15843
H         38.68360       49.54327       97.52169
H         40.47081       49.19859       99.95754
H         40.52576       48.14289       98.49286
H         42.11374       50.32379       98.65396
H         41.18724       50.11304       97.09839
N         39.84008       52.00186      101.17608
C         39.76857       52.14858      102.62711
C         41.02549       51.58660      103.27828
O         42.08313       51.63899      102.66715
C         39.58515       53.62171      103.02178
C         38.21203       54.15279      102.58734
C         37.93456       55.49245      103.20373
O         36.88205       55.64744      104.02967
O         38.66350       56.44087      102.97881
H         40.66561       52.39127      100.70189
H         38.89502       51.59859      103.02944
H         40.39651       54.24126      102.58712
H         39.63917       53.69689      104.12846
H         37.42236       53.45453      102.94069
H         38.15743       54.21725      101.47921
N         41.02307       51.05555      104.53608
C         39.84274       50.94727      105.36871
H         39.08466       50.29863      104.88225
H         40.11041       50.49113      106.34482
H         39.41112       51.94926      105.56664
H         41.91343       50.70870      104.92587
Ca        47.60855       59.39008      112.23443
O         47.72951       57.55805      109.91241
H         48.47837       57.01568      110.26644
H         46.92456       57.19120      110.35573
O         49.34659       59.63245      115.08513
H         50.04830       60.27179      115.36605
H         49.47965       58.84379      115.66838
O         46.36599       59.89112      115.11096
H         45.74317       60.54995      114.71509
H         45.83119       59.06196      115.18836
O         45.66785       57.17227      112.96503
H         45.03748       56.54832      112.52659
H         45.25303       58.06264      112.84717
O         51.07765       59.11736      112.58033
H         51.67900       59.70065      112.05265
H         51.55231       58.25037      112.62747
O         49.06716       62.16681      113.37771
H         48.93365       62.70718      114.19554
H         48.57750       62.66058      112.67398
O         48.79799       56.86127      113.50584
H         48.35373       56.59368      114.34918
H         49.76493       56.76371      113.69337

Ca 1.0



