%chk=apoCaM-CA-Ng.loop2.water5.frame6.chk
%nprocshared=20
%mem=10GB
%nosave
#b3lyp/svp scf=(tight,noincore,xqc) Test 
#IOP(5/87=12) Density=Current Pop=(MK,readradii) iop(6/33=2) iop(6/42=6)

apoCaM-CA-Ng.loop2.water5.frame6 

   -2  1 
C         44.44623       43.82372       60.71073
C         43.00102       44.17304       60.92118
O         42.25332       43.32482       61.38555
H         44.91497       43.54116       61.67574
H         44.51457       42.96436       60.00928
H         45.01017       44.67369       60.27202
N         42.52948       45.41096       60.59806
C         41.11671       45.76777       60.69485
C         40.28945       44.97450       59.68992
O         39.13330       44.69597       59.97097
C         40.92613       47.27660       60.45492
C         39.49073       47.69508       60.62449
O         38.86509       47.50691       61.80268
O         38.88609       48.20505       59.69505
H         43.19900       46.11953       60.25946
H         40.77132       45.54577       61.73106
H         41.27994       47.53651       59.43272
H         41.53818       47.84180       61.19086
N         40.83039       44.56851       58.50128
C         40.14388       43.74417       57.50936
C         39.71653       42.41028       58.10676
O         38.66378       41.88907       57.76466
C         38.98345       44.51230       56.86391
H         41.80903       44.81638       58.29228
H         40.87776       43.51642       56.70478
H         38.19946       44.75785       57.60979
H         39.36332       45.45792       56.42226
H         38.52491       43.90780       56.05313
N         40.49046       41.83734       59.06994
C         40.19397       40.60928       59.78820
C         38.77458       40.63334       60.35050
O         38.00980       39.70530       60.12205
C         40.50221       39.40135       58.87888
C         40.73815       38.15985       59.68214
O         41.76125       38.15596       60.56028
O         40.06350       37.15800       59.51130
H         41.34761       42.32573       59.35686
H         40.90920       40.57938       60.64172
H         41.46151       39.58923       58.34825
H         39.70990       39.27210       58.10953
N         38.33383       41.73228       61.02859
C         36.95864       41.89601       61.46886
C         36.65868       41.00009       62.63214
O         35.80695       40.13025       62.51389
H         38.97953       42.52099       61.16808
H         36.27189       41.70388       60.61345
H         36.79315       42.94240       61.80327
N         37.33708       41.16860       63.80281
C         37.15647       40.30232       64.95999
C         36.73057       41.07164       66.19072
O         36.72623       42.29558       66.19475
C         38.48828       39.59622       65.25321
C         38.90999       38.75428       64.08192
N         40.03579       39.04525       63.39392
O         38.22032       37.80427       63.74337
H         38.04150       41.92123       63.86143
H         36.36782       39.54432       64.75719
H         38.40947       38.94296       66.14796
H         39.25722       40.37344       65.46650
H         40.61828       39.85490       63.64747
H         40.31620       38.46407       62.59421
N         36.34026       40.37138       67.29068
C         35.95216       40.98369       68.54156
C         37.16179       41.22217       69.41100
O         37.86957       40.27027       69.71072
H         36.27987       39.34334       67.22901
H         35.30837       40.26595       69.09552
H         35.33369       41.89178       68.36550
N         37.42398       42.45912       69.91332
C         38.47806       42.71146       70.89689
C         39.90216       42.50016       70.37434
O         40.80253       42.47247       71.19875
C         38.29889       44.14697       71.47239
C         39.30093       44.52825       72.56924
O         38.37882       45.08725       70.43095
H         36.77930       43.22467       69.65951
H         38.32146       41.99150       71.73266
H         37.27842       44.16916       71.92618
H         37.79513       45.85018       70.68276
H         39.03633       45.52314       72.98389
H         39.28505       43.78160       73.39032
H         40.32898       44.61578       72.16118
N         40.20329       42.38848       69.04651
C         41.59218       42.35028       68.56322
C         41.88671       41.06174       67.80743
O         40.99342       40.24003       67.66579
C         41.89673       43.63961       67.73509
C         41.04244       43.74024       66.44232
C         41.72031       44.87887       68.63772
C         41.41677       44.93383       65.55874
H         39.44222       42.40467       68.35482
H         42.30484       42.35049       69.41560
H         42.96597       43.60991       67.43638
H         39.96203       43.81625       66.68594
H         41.20033       42.82251       65.83666
H         42.34289       44.77824       69.55250
H         42.04888       45.80576       68.12794
H         40.66034       45.00121       68.94402
H         40.81001       44.91153       64.62910
H         41.20739       45.89683       66.06745
H         42.49144       44.88852       65.28246
N         43.13456       40.82784       67.28324
C         43.45028       39.63711       66.49764
C         44.76170       38.96890       66.94799
O         45.46396       38.42201       66.10991
C         43.45995       40.05914       65.00944
C         43.53851       38.93021       64.01225
O         43.53058       39.18872       62.82007
O         43.59509       37.64310       64.40456
H         43.86193       41.55155       67.37107
H         42.63971       38.88616       66.61835
H         44.29673       40.76928       64.83521
H         42.50902       40.59693       64.80379
N         45.15068       38.94761       68.25698
C         46.30811       38.18424       68.74258
C         47.60093       38.44992       67.95960
O         48.07847       39.57574       67.98266
C         46.59291       38.51424       70.22977
C         47.84045       37.80322       70.71960
C         47.85790       36.40875       70.88441
C         49.01690       38.53704       70.96585
C         49.03139       35.76142       71.28796
C         50.18928       37.88500       71.35684
C         50.19664       36.49822       71.51912
H         44.57375       39.45238       68.94723
H         46.04429       37.11090       68.67415
H         45.72673       38.26743       70.88000
H         46.75137       39.61411       70.29463
H         46.96624       35.82478       70.69654
H         49.03623       39.61137       70.82932
H         49.04077       34.68681       71.41387
H         51.09421       38.45498       71.52633
H         51.10664       35.99517       71.82024
N         48.27542       37.43878       67.31876
C         49.61369       37.57795       66.75909
C         49.64041       38.53510       65.58841
O         50.57222       39.32323       65.50270
C         50.02180       36.13268       66.43635
C         48.70745       35.46467       66.11751
C         47.78420       36.07873       67.16803
H         50.34556       37.94271       67.51517
H         50.83631       36.01428       65.69048
H         50.36498       35.66272       67.38849
H         48.39696       35.80994       65.10960
H         48.72010       34.35345       66.11010
H         46.74374       36.02618       66.78034
H         47.86597       35.56027       68.14768
N         48.62087       38.58505       64.69199
C         48.55476       39.57828       63.62747
C         48.51532       40.97251       64.22896
O         49.30823       41.81113       63.82411
C         47.32982       39.32904       62.72814
C         47.45976       37.97484       62.00482
C         46.30022       37.71953       61.09463
O         46.06928       38.47607       60.16517
O         45.52494       36.63493       61.28402
H         47.83201       37.93451       64.80811
H         49.45266       39.49486       62.97358
H         47.28210       40.13399       61.96094
H         46.39586       39.36115       63.33056
H         47.51633       37.14611       62.74095
H         48.39297       37.96258       61.40034
N         47.65844       41.26566       65.24866
C         47.61215       42.55417       65.91162
H         46.57550       42.94759       65.88068
H         47.91661       42.43246       66.97350
H         48.28749       43.29942       65.44090
H         47.03621       40.52869       65.60906
Ca        42.44268       36.38431       61.76900
O         41.06929       35.91709       64.35972
H         40.12534       35.94103       64.06439
H         41.17832       36.73258       64.91000
O         43.52001       36.92158       58.41719
H         43.95269       36.03403       58.35409
H         43.87769       37.30914       59.25386
O         40.37529       34.38832       61.30642
H         40.77396       34.69564       60.45366
H         39.40528       34.55024       61.19729
O         43.51418       33.95577       60.33818
H         43.28733       33.68861       59.41232
H         44.34684       33.46229       60.54504
O         43.74767       34.36885       63.67727
H         44.45741       33.84604       63.22688
H         44.21659       34.84996       64.40446

Ca 1.0



