%chk=apoCaM-CA-Ng.loop1.water3.frame981.chk
%nprocshared=20
%mem=10GB
%nosave
#b3lyp/svp scf=(tight,noincore,xqc) Test 
#IOP(5/87=12) Density=Current Pop=(MK,readradii) iop(6/33=2) iop(6/42=6)

apoCaM-CA-Ng.loop1.water3.frame981 

   0  1 
C         47.06328       82.01748       50.30147
C         46.72126       81.75825       51.73907
O         45.82948       80.96831       52.01290
H         48.11916       81.72173       50.11968
H         46.40874       81.42913       49.62498
H         46.94725       83.09739       50.07288
N         47.42436       82.39026       52.71656
C         47.21804       82.16530       54.14423
C         46.84912       83.46237       54.85805
O         47.65095       84.38459       54.89503
C         48.45082       81.48203       54.78989
C         49.78971       82.16514       54.61655
O         50.74033       81.78038       55.27861
O         49.95291       83.21113       53.78309
H         48.14636       83.05400       52.40986
H         46.37663       81.45567       54.29647
H         48.55268       80.44768       54.39951
H         48.23741       81.40901       55.88032
N         45.61847       83.60050       55.43638
C         45.18541       84.81820       56.11662
C         45.88175       84.97458       57.46230
O         45.61008       84.20631       58.37446
C         43.64404       84.80990       56.25650
C         43.07462       86.04303       56.98348
C         41.53648       86.11865       56.91482
C         41.03182       86.46336       55.49921
N         39.57786       86.61473       55.47322
H         44.94146       82.82908       55.33210
H         45.42997       85.68441       55.46084
H         43.30527       83.89736       56.79636
H         43.24886       84.76001       55.22241
H         43.49470       86.98084       56.56145
H         43.37757       85.98039       58.05182
H         41.20547       86.93196       57.59612
H         41.08683       85.16575       57.27267
H         41.31652       85.67581       54.77179
H         41.49817       87.42083       55.17573
H         39.27964       87.36682       56.13581
H         39.28273       86.88349       54.50619
H         39.11782       85.71115       55.72847
N         46.80611       85.96142       57.63950
C         47.49304       86.23902       58.90456
C         47.64021       87.74907       59.10936
O         47.40431       88.49333       58.16685
C         48.87237       85.54595       58.89569
C         49.67888       85.89445       57.68293
O         50.02505       87.03968       57.44091
O         49.95349       84.90551       56.82765
H         47.07458       86.51204       56.81186
H         46.90421       85.81267       59.73988
H         48.68975       84.44856       58.88148
H         49.47399       85.75480       59.79269
N         48.04981       88.31995       60.28108
C         48.24523       87.65079       61.55864
C         46.95237       87.12687       62.13839
O         45.90880       87.21974       61.50658
H         48.20960       89.33690       60.27556
H         48.63054       88.40256       62.28217
H         49.00184       86.85338       61.50057
N         46.95111       86.57003       63.38103
C         45.72676       86.10866       64.03013
C         44.76224       87.24763       64.36480
O         43.63532       86.94905       64.73345
C         46.05154       85.28252       65.29168
C         46.82791       86.05864       66.32421
O         46.29978       87.15778       66.89552
O         47.94296       85.68732       66.65420
H         47.85575       86.46259       63.86506
H         45.20980       85.42429       63.31979
H         46.64811       84.39751       64.97768
H         45.11078       84.90770       65.74951
N         45.12218       88.56284       64.26349
C         44.20468       89.66743       64.50954
C         43.97274       90.49655       63.26152
O         43.21476       91.45409       63.34007
H         46.08411       88.81236       63.99442
H         44.62514       90.31257       65.31074
H         43.21370       89.30238       64.85267
N         44.57555       90.19235       62.07521
C         44.37838       90.92522       60.83376
C         45.70311       91.51385       60.39313
O         46.73204       91.11015       60.91459
C         43.84897       89.95057       59.75040
C         42.55772       89.25144       60.19073
O         43.61893       90.64050       58.55002
H         45.21920       89.39937       62.02579
H         43.65744       91.75689       60.99302
H         44.63014       89.16714       59.58944
H         43.61437       89.96082       57.82541
H         42.72446       88.66300       61.11842
H         41.75514       89.99622       60.37079
H         42.22749       88.54401       59.40092
N         45.76376       92.49531       59.45059
C         47.03334       93.05414       58.97914
C         47.86060       93.64717       60.12601
O         49.05357       93.83272       59.93643
C         46.79404       94.07679       57.81655
C         46.04393       93.44325       56.60615
C         48.08710       94.75778       57.32472
C         46.76891       92.27221       55.93264
H         44.87466       92.84395       59.06440
H         47.63569       92.20535       58.58941
H         46.14480       94.89089       58.21029
H         45.87177       94.23309       55.84286
H         45.04119       93.08471       56.91231
H         47.85577       95.46433       56.49924
H         48.54787       95.36720       58.12781
H         48.82958       94.01468       56.96935
H         46.16245       91.91347       55.07490
H         47.76011       92.58062       55.54402
H         46.89294       91.42042       56.63177
N         47.31915       93.91139       61.35244
C         48.11095       94.36615       62.49306
C         47.66834       95.74485       62.93437
O         46.71530       96.29075       62.39802
C         48.06044       93.32591       63.65541
C         46.64079       92.95687       64.10645
O         48.77576       92.16025       63.32793
H         46.30837       93.78996       61.49615
H         49.17908       94.48142       62.20812
H         48.58100       93.76176       64.53266
H         48.49128       91.85791       62.43065
H         46.69098       92.25628       64.96654
H         46.07876       93.86195       64.41723
H         46.08688       92.44632       63.29397
N         48.39211       96.38776       63.89289
C         48.13983       97.74987       64.32642
C         49.34324       98.59670       63.95309
O         49.17218       99.53888       63.18991
C         47.79994       97.77014       65.84000
C         47.59187       99.19167       66.37290
O         48.80529       97.13664       66.58926
H         49.20106       95.90242       64.30607
H         47.25679       98.17460       63.79696
H         46.84162       97.20715       65.95205
H         48.36361       96.70718       67.36840
H         46.79372       99.71005       65.80150
H         47.29286       99.15044       67.44200
H         48.53290       99.77816       66.29935
N         50.58428       98.33494       64.45787
C         51.74911       99.16491       64.16988
C         52.96857       98.35476       63.75472
O         53.05884       97.17218       64.05719
C         52.10475      100.01079       65.41425
C         52.35994       99.14748       66.66550
C         52.78993       99.98619       67.86845
C         52.96917       99.08530       69.09940
N         53.43090       99.85381       70.25269
H         50.69743       97.55074       65.11511
H         51.51818       99.87206       63.34289
H         51.26266      100.70404       65.63101
H         53.00365      100.62616       65.18927
H         53.15861       98.40377       66.45677
H         51.42698       98.60833       66.93517
H         52.01812      100.75628       68.08692
H         53.75030      100.49388       67.63138
H         53.71042       98.28575       68.87527
H         51.99729       98.60020       69.34533
H         54.36556      100.27575       70.04725
H         52.74323      100.60694       70.48348
H         53.52226       99.21255       71.07360
N         53.99143       98.99251       63.11626
C         55.31439       98.42487       62.86900
C         55.27577       97.04636       62.20437
O         55.80749       96.12801       62.81292
C         56.19142       99.45969       62.11879
C         57.64319       99.00690       61.92061
C         58.42959      100.06890       61.20264
O         58.56497      101.29520       61.74416
O         58.94952       99.82609       60.12521
H         53.83521       99.97634       62.84374
H         55.79400       98.28143       63.86478
H         56.20008      100.39992       62.71474
H         55.75104       99.70942       61.13723
H         57.66553       98.06834       61.32578
H         58.11585       98.81555       62.90761
N         54.68517       96.76002       61.00879
C         53.97839       97.70430       60.17626
H         53.13534       98.15676       60.73589
H         54.66234       98.47887       59.78939
H         53.56281       97.17322       59.29332
H         54.72064       95.78229       60.67830
Ca        50.67650       85.07519       54.73569
O         53.33114       85.17159       55.82202
H         53.38874       85.88100       55.13308
H         53.18887       84.33738       55.30685
O         50.65346       88.29776       54.20294
H         51.29681       88.70949       53.57296
H         50.18387       89.06566       54.61575
O         47.61897       87.73912       54.54154
H         47.02700       88.29092       55.11223
H         47.22860       87.81238       53.63500

Ca 1.0



