%chk=apoCaM-CA-Ng.loop3.water5.frame68.chk
%nprocshared=20
%mem=10GB
%nosave
#b3lyp/svp scf=(tight,noincore,xqc) Test 
#IOP(5/87=12) Density=Current Pop=(MK,readradii) iop(6/33=2) iop(6/42=6)

apoCaM-CA-Ng.loop3.water5.frame68 

   0  1 
C         46.12958       71.70466       56.64258
C         46.29112       73.18930       56.49056
O         45.89173       73.72908       55.47085
H         46.55353       71.34544       57.60370
H         45.05382       71.44381       56.63057
H         46.64924       71.18390       55.81143
N         46.88361       73.91536       57.47763
C         47.09630       75.35809       57.44216
C         47.98433       75.74965       56.26988
O         47.67619       76.70572       55.56985
C         45.75106       76.13245       57.44053
C         44.86270       75.82628       58.61861
O         45.24191       74.96154       59.57983
O         43.77653       76.37599       58.70605
H         47.22223       73.41746       58.31537
H         47.65126       75.63299       58.36686
H         45.18614       75.90046       56.51226
H         45.95950       77.22450       57.44989
N         49.10056       75.02082       55.97994
C         50.00159       75.34588       54.88178
C         49.77868       74.37843       53.73412
O         50.70670       73.70458       53.30602
C         51.46524       75.32783       55.38265
C         51.77703       76.33984       56.49662
C         51.70159       77.79552       56.01555
C         52.13842       78.76040       57.12579
N         52.11377       80.14481       56.65536
H         49.29857       74.17192       56.53188
H         49.77489       76.34777       54.46021
H         52.15873       75.51693       54.53355
H         51.68200       74.30975       55.77638
H         52.81870       76.14378       56.83383
H         51.09997       76.17984       57.36386
H         50.66590       78.04555       55.70354
H         52.38130       77.92276       55.14436
H         53.17267       78.50779       57.45117
H         51.45937       78.65412       58.00077
H         52.76997       80.26125       55.84887
H         51.14509       80.40936       56.36348
H         52.41960       80.77526       57.43138
N         48.54357       74.29893       53.15985
C         48.24366       73.48384       51.98707
C         47.70977       74.40185       50.87979
O         47.46335       75.57096       51.15078
C         47.19502       72.42224       52.40617
C         46.98984       71.27790       51.44998
O         45.99062       70.40614       51.66277
O         47.74335       71.08516       50.51209
H         47.77683       74.86086       53.56122
H         49.17051       72.97876       51.63933
H         46.22744       72.94061       52.58124
H         47.50194       71.95493       53.36697
N         47.50301       73.96076       49.60610
C         46.90446       74.79045       48.57716
C         45.46726       75.08520       48.92332
O         45.10716       76.24607       49.05904
H         47.77878       73.01495       49.33070
H         46.91480       74.24563       47.60815
H         47.49513       75.72472       48.45362
N         44.58236       74.05777       49.07775
C         43.17081       74.26167       49.39795
C         42.94160       74.88813       50.77280
O         41.80479       75.24000       51.05770
C         42.37690       72.94273       49.21785
C         42.85790       71.78749       50.06866
N         42.74320       71.80298       51.41509
O         43.33857       70.80640       49.52147
H         44.92695       73.09860       48.91641
H         42.76155       74.97345       48.64626
H         42.48185       72.64825       48.14954
H         41.29488       73.11270       49.40399
H         42.31087       72.59695       51.90309
H         43.06611       70.99799       51.97072
N         43.95363       75.07797       51.67034
C         43.77125       75.74227       52.94990
C         42.83425       74.98217       53.85116
O         41.81893       75.53166       54.25312
H         44.90566       74.76465       51.44538
H         43.39599       76.77498       52.77791
H         44.75346       75.81764       53.46584
N         43.12038       73.69723       54.20195
C         42.26677       72.89517       55.08352
C         42.65225       71.41471       54.99754
O         43.72599       71.10300       54.50086
C         42.32551       73.48845       56.51741
C         41.37650       72.90211       57.53073
C         39.99169       72.88751       57.29393
C         41.86641       72.41846       58.75574
C         39.11550       72.37873       58.25775
C         40.98795       71.91806       59.72156
C         39.60854       71.89250       59.47309
O         38.75013       71.40890       60.39348
H         43.96482       73.28460       53.78099
H         41.23697       72.96340       54.66936
H         42.06781       74.56514       56.47080
H         43.37281       73.42789       56.88410
H         39.58815       73.27179       56.36620
H         42.92823       72.43454       58.96961
H         38.05073       72.36883       58.06199
H         41.38153       71.54910       60.66039
H         39.05083       71.06437       61.24660
N         41.74442       70.43716       55.29984
C         41.95467       69.04470       54.89403
C         41.29411       68.82248       53.52928
O         41.63008       67.83970       52.88435
C         41.48470       68.02332       55.98956
C         42.35296       68.04741       57.27614
C         41.50537       66.56513       55.47968
C         42.32521       69.35229       58.05070
H         40.80971       70.71548       55.63381
H         43.03752       68.86624       54.71049
H         40.42879       68.25106       56.25743
H         43.40796       67.79173       57.03462
H         41.96227       67.27196       57.97247
H         41.16901       65.86915       56.27809
H         40.79993       66.41304       54.63971
H         42.52915       66.27241       55.16150
H         42.81623       70.16302       57.48409
H         41.27443       69.61566       58.28930
H         42.89024       69.23231       58.99904
N         40.38627       69.69685       52.99264
C         39.83005       69.53262       51.64960
C         39.02403       68.24905       51.46928
O         38.64304       67.97717       50.33913
C         38.94178       70.73607       51.28287
O         39.68120       71.92223       51.37150
H         40.10166       70.52839       53.52782
H         40.68363       69.50269       50.93526
H         38.07834       70.77901       51.98537
H         38.56931       70.61750       50.24036
H         39.05443       72.65725       51.14446
N         38.73407       67.40617       52.50889
C         37.98578       66.15811       52.38397
C         38.68191       65.09359       51.53646
O         38.10113       64.02596       51.39353
C         36.56098       66.43217       51.87504
H         39.02635       67.65685       53.46209
H         37.87809       65.72355       53.40328
H         36.55565       66.82230       50.83774
H         35.96161       65.49695       51.88913
H         36.06053       67.16956       52.53809
N         39.91137       65.27815       50.96210
C         40.56039       64.26860       50.13028
C         41.89317       63.84196       50.71714
O         42.32545       64.39717       51.71800
C         40.75455       64.83698       48.72097
H         40.42162       66.15982       51.10087
H         39.92716       63.35871       50.05178
H         39.77047       65.12447       48.29350
H         41.40511       65.73703       48.75319
H         41.21721       64.08729       48.04579
N         42.58776       62.81711       50.13730
C         43.89035       62.32292       50.58042
C         43.88066       61.71755       51.98268
O         44.93974       61.29228       52.42573
C         44.97788       63.41528       50.45009
C         45.09292       63.93614       49.00911
C         46.23088       64.90620       48.88016
O         47.15251       64.67495       48.11389
O         46.24190       66.03625       49.60847
H         42.17711       62.35619       49.31118
H         44.19190       61.49625       49.89796
H         45.95835       62.97132       50.73336
H         44.77565       64.25898       51.14257
H         44.15131       64.44438       48.70990
H         45.26659       63.07952       48.32076
N         42.74841       61.60314       52.73544
C         42.77137       61.02358       54.06109
H         41.74808       61.02292       54.49292
H         43.13762       59.97606       54.01160
H         43.43600       61.61862       54.72323
H         41.83725       61.91407       52.37593
Ca        45.72466       68.81569       50.08989
O         48.92062       68.27416       49.18681
H         48.99702       69.12703       48.68945
H         49.11377       68.51725       50.12708
O         43.22471       67.89930       48.17940
H         43.14017       67.41884       47.31790
H         42.31893       68.25954       48.35408
O         43.75478       66.84977       51.16014
H         44.27932       66.83418       51.99998
H         43.45664       67.78928       51.06946
O         47.29899       67.39052       52.55890
H         47.86025       66.88281       51.92041
H         47.76193       68.26016       52.65858
O         46.20854       69.88794       47.01401
H         45.45536       69.29591       46.76333
H         45.77635       70.68363       47.41496

Ca 1.0



