%chk=apoCaM-CA-Ng.loop2.water4.frame723.chk
%nprocshared=20
%mem=10GB
%nosave
#b3lyp/svp scf=(tight,noincore,xqc) Test 
#IOP(5/87=12) Density=Current Pop=(MK,readradii) iop(6/33=2) iop(6/42=6)

apoCaM-CA-Ng.loop2.water4.frame723 

   -2  1 
C         74.84205      110.08629        8.11474
C         75.55732      111.17916        7.37018
O         75.38274      112.34027        7.71077
H         73.74463      110.22976        8.01890
H         75.09601      109.08372        7.70903
H         75.12020      110.11327        9.18843
N         76.35821      110.88001        6.31020
C         77.02896      111.89501        5.50652
C         78.12067      112.59277        6.29974
O         78.98979      111.92165        6.83879
C         77.63444      111.25638        4.24247
C         78.17167      112.30695        3.30809
O         77.34788      113.25050        2.81048
O         79.35016      112.30821        2.99257
H         76.45022      109.89021        6.03244
H         76.26304      112.62395        5.15758
H         76.84028      110.70032        3.69918
H         78.43409      110.53566        4.52412
N         78.17013      113.95329        6.35124
C         79.22654      114.68682        7.04732
C         79.10736      114.50380        8.55057
O         78.07194      114.02888        8.99857
C         79.08430      116.18333        6.70519
H         77.45300      114.48323        5.83178
H         80.21165      114.31493        6.68886
H         79.83243      116.83338        7.18742
H         79.18368      116.32493        5.60892
H         78.08593      116.55256        7.02404
N         80.07272      114.89309        9.43311
C         81.43447      115.33244        9.09359
C         82.32451      114.13680        8.74818
O         81.88748      113.00307        8.88246
C         82.02531      116.13528       10.28772
C         82.14316      115.29921       11.53084
O         81.83793      113.99535       11.45101
O         82.51480      115.78464       12.58696
H         79.81829      114.81629       10.43011
H         81.42091      116.02060        8.23809
H         81.34710      116.99061       10.49974
H         83.02732      116.54170       10.03483
N         83.60138      114.32097        8.31385
C         84.53118      113.22244        8.07906
C         84.75924      113.00422        6.60256
O         84.11495      113.66955        5.80328
H         83.93629      115.28058        8.13774
H         84.15914      112.26794        8.50422
H         85.48233      113.47511        8.59487
N         85.66196      112.09881        6.12258
C         86.55931      111.29273        6.95446
C         85.87820      110.04848        7.51301
O         84.75528      109.75209        7.12915
C         87.85168      110.93311        6.17083
C         87.66187      110.00673        4.98276
N         88.30546      108.81735        4.92796
O         86.95204      110.34035        4.04657
H         85.77364      112.07689        5.10041
H         86.90108      111.92117        7.80283
H         88.57484      110.47121        6.87581
H         88.31510      111.87657        5.80809
H         88.92662      108.51256        5.69070
H         88.19056      108.20085        4.10933
N         86.52662      109.26259        8.42478
C         85.99331      108.00845        8.94212
C         85.82092      107.97902       10.45278
O         85.49289      106.91442       10.95762
H         87.46694      109.54262        8.74348
H         86.71502      107.20690        8.66741
H         85.01900      107.75069        8.47702
N         86.03562      109.06881       11.24913
C         85.97144      108.99697       12.71160
C         84.57977      108.63616       13.22311
O         83.65342      109.41523       13.05283
C         86.43178      110.33358       13.34978
C         86.37391      110.28953       14.88603
O         87.74826      110.60328       12.94149
H         86.30951      109.96019       10.81072
H         86.69421      108.21619       13.03835
H         85.75797      111.14479       12.99485
H         87.93720      111.54819       13.18143
H         85.33381      110.12796       15.24106
H         87.01946      109.47489       15.27549
H         86.71787      111.25792       15.30542
N         84.39323      107.47661       13.91922
C         83.15183      107.12066       14.60726
C         83.00708      107.96624       15.86375
O         83.87681      107.89503       16.72173
C         83.15775      105.60731       14.99486
C         81.95888      105.25526       15.92435
C         83.14728      104.75218       13.71179
C         81.90190      103.78812       16.34315
H         85.19096      106.82716       13.99288
H         82.28539      107.27468       13.92961
H         84.09171      105.38689       15.55954
H         80.99974      105.52906       15.44584
H         82.04446      105.84044       16.86501
H         84.00111      105.00974       13.05193
H         83.24803      103.67471       13.94963
H         82.20399      104.91230       13.14632
H         81.07381      103.64896       17.06993
H         81.69653      103.13334       15.47289
H         82.85571      103.48716       16.82567
N         81.91189      108.75730       16.05418
C         81.68457      109.52231       17.28353
C         80.26877      109.40890       17.83935
O         80.06992      109.91511       18.93608
C         82.09139      110.99253       17.10299
C         81.45911      111.63748       15.92196
O         80.81990      112.67164       16.02822
O         81.71122      111.12327       14.71408
H         81.23739      108.83512       15.28107
H         82.34618      109.13016       18.08633
H         83.18723      111.03110       16.92376
H         81.88057      111.57601       18.02579
N         79.23371      108.79376       17.18791
C         77.91935      108.64723       17.81091
C         76.87848      108.22203       16.77425
O         76.38981      107.10163       16.84152
C         78.02397      107.64277       18.99155
C         76.74147      107.55803       19.78256
C         76.23414      108.69927       20.42979
C         76.04656      106.34185       19.89127
C         75.04745      108.62666       21.16212
C         74.85982      106.27346       20.62785
C         74.35982      107.41509       21.26069
H         79.36647      108.41979       16.23908
H         77.59650      109.62682       18.21683
H         78.81648      107.95303       19.70230
H         78.31870      106.64661       18.59190
H         76.75585      109.64606       20.36931
H         76.42085      105.44859       19.40652
H         74.66274      109.51084       21.65371
H         74.32733      105.33499       20.70801
H         73.44094      107.36129       21.82931
N         76.46569      109.07219       15.77865
C         75.48476      108.71803       14.75973
C         75.86478      107.52684       13.90263
O         75.02294      107.05895       13.14818
C         75.44824      109.95304       13.84925
C         75.74349      111.07009       14.81746
C         76.85227      110.46396       15.67740
H         74.52067      108.53555       15.28587
H         76.31791      109.92500       13.15201
H         74.52347      110.05842       13.24301
H         75.99820      112.04769       14.35636
H         74.83468      111.19531       15.44943
H         77.85601      110.51818       15.21003
H         76.84357      111.00226       16.64758
N         77.13565      107.03533       13.90082
C         77.54770      105.92798       13.06702
C         77.11792      104.64840       13.74863
O         76.43760      103.84171       13.13009
C         79.06800      105.95155       12.77259
C         79.54458      107.13466       11.88975
C         79.79572      108.44178       12.60085
O         80.91058      108.93565       12.57503
O         78.80737      109.11660       13.20370
H         77.84771      107.45171       14.51169
H         77.06177      105.99500       12.06660
H         79.25769      105.03670       12.16877
H         79.68406      105.87711       13.68799
H         78.83197      107.29461       11.05208
H         80.51696      106.83430       11.44167
N         77.42647      104.42925       15.05757
C         76.96484      103.26030       15.77284
H         75.85538      103.20150       15.72646
H         77.40537      102.34400       15.32904
H         77.26451      103.32772       16.84063
H         77.96755      105.13576       15.57923
Ca        81.77509      112.51584       13.04508
O         79.62151      111.05074       10.04436
H         78.64320      111.14986        9.93148
H         79.99954      111.42044        9.21011
O         82.60450      109.85738       10.08436
H         83.05559      110.14073        9.25060
H         82.91738      108.92979       10.23214
O         78.75870      112.34208       12.81278
H         78.59144      111.45700       12.40628
H         78.76282      112.16744       13.78640
O         84.38533      112.59447       11.30853
H         84.57770      113.50873       11.63599
H         85.23191      112.29941       10.88990

Ca 1.0



