%chk=apoCaM-CA-Ng.loop1.water5.frame544.chk
%nprocshared=20
%mem=10GB
%nosave
#b3lyp/svp scf=(tight,noincore,xqc) Test 
#IOP(5/87=12) Density=Current Pop=(MK,readradii) iop(6/33=2) iop(6/42=6)

apoCaM-CA-Ng.loop1.water5.frame544 

   0  1 
C         85.43936       33.16478       53.67430
C         85.83386       33.88839       52.41713
O         86.39824       33.26907       51.52791
H         84.34204       33.22146       53.82164
H         85.74726       32.09744       53.63451
H         85.94676       33.63605       54.54466
N         85.60773       35.23107       52.31106
C         86.06872       36.08765       51.21600
C         85.28504       35.88160       49.91523
O         84.95788       34.75572       49.57113
C         87.60049       35.93747       51.02628
C         88.28252       37.05642       50.27887
O         89.48512       36.99179       50.08418
O         87.61761       38.15408       49.87707
H         85.15599       35.69988       53.11203
H         85.88319       37.13151       51.55449
H         87.81821       34.97987       50.50915
H         88.07925       35.90980       52.02945
N         84.99057       36.96398       49.12905
C         84.29000       36.96847       47.84282
C         82.80722       36.69836       47.93076
O         82.16740       36.80559       46.89080
C         84.89278       36.00939       46.78976
C         86.32133       36.34926       46.37353
C         86.72080       35.46467       45.18174
C         88.11007       35.82066       44.65085
N         88.44288       34.99960       43.48643
H         85.30881       37.88751       49.44971
H         84.35755       38.00372       47.43724
H         84.27348       36.09762       45.86820
H         84.82581       34.95220       47.12315
H         87.01654       36.20223       47.22764
H         86.35577       37.41352       46.05309
H         85.98789       35.61456       44.35647
H         86.69548       34.39420       45.48329
H         88.86548       35.65964       45.45039
H         88.12642       36.89348       44.35489
H         87.74871       35.16289       42.72034
H         89.39294       35.26428       43.14061
H         88.44434       33.98676       43.74734
N         82.15956       36.37780       49.08457
C         80.73800       36.07128       49.06196
C         80.20397       35.94828       50.49018
O         80.55423       34.97392       51.14152
C         80.52671       34.74017       48.27302
C         79.09350       34.36899       48.10560
O         78.78647       33.28040       47.64745
O         78.14399       35.22148       48.49806
H         82.66855       36.35929       49.97969
H         80.22256       36.88587       48.52374
H         81.04325       33.92497       48.82493
H         80.96158       34.77824       47.25536
N         79.37522       36.85767       51.09298
C         78.96302       38.15817       50.57998
C         77.45828       38.32986       50.49331
O         77.04201       39.46583       50.32293
H         79.06131       36.64449       52.05343
H         79.40967       38.43353       49.60964
H         79.33865       38.91095       51.30757
N         76.58420       37.28067       50.60461
C         75.11879       37.43572       50.58109
C         74.33116       36.09542       50.79540
O         75.13961       34.98215       50.95208
C         74.60906       38.11661       49.28185
C         74.95116       37.36785       48.02316
O         74.41692       36.15672       47.78696
O         75.67380       37.87961       47.18246
H         76.98888       36.34693       50.73729
H         74.85439       38.11676       51.42118
H         75.02100       39.14092       49.20107
H         73.50579       38.23816       49.33235
N         73.40067       36.19126       51.93157
C         72.74613       34.90970       52.29035
C         73.35349       34.28482       53.54594
O         72.68791       34.30008       54.57200
H         72.66014       36.86542       51.62446
H         72.71632       34.19184       51.44200
H         71.68329       35.14000       52.53178
N         74.60779       33.73823       53.55798
C         75.28434       33.24601       54.75232
C         75.90104       31.86681       54.52892
O         75.86232       31.34392       53.42280
C         76.40591       34.25940       55.13582
C         77.51070       34.39132       54.07228
O         75.84552       35.52854       55.35107
H         75.15517       33.69993       52.70210
H         74.57299       33.18678       55.60453
H         76.91614       33.92538       56.06753
H         75.46963       35.52618       56.26968
H         78.00959       33.41531       53.89373
H         77.10940       34.77296       53.11088
H         78.28356       35.10736       54.42261
N         76.58146       31.26807       55.54828
C         77.43860       30.09313       55.37288
C         76.63001       28.82281       55.09071
O         77.22343       27.82083       54.72394
C         78.39781       29.94760       56.61222
C         79.23786       31.25288       56.79773
C         79.34945       28.73749       56.48630
C         80.08415       31.27907       58.07208
H         76.55748       31.73584       56.46499
H         78.08444       30.28473       54.48560
H         77.76723       29.79767       57.51699
H         78.58068       32.13849       56.87974
H         79.89287       31.41385       55.91430
H         78.79836       27.78028       56.44818
H         79.98868       28.83700       55.58281
H         79.99843       28.63848       57.37683
H         80.88159       30.51175       58.05646
H         80.58089       32.26862       58.15928
H         79.43744       31.13054       58.96320
N         75.27325       28.79276       55.21578
C         74.46827       27.59665       54.98086
C         73.68749       27.24814       56.24467
O         73.81474       27.94230       57.24244
C         73.59021       27.79610       53.71731
C         72.70609       29.04436       53.75420
O         74.43260       27.89091       52.59360
H         74.77261       29.64139       55.50843
H         75.11127       26.71288       54.77348
H         72.91509       26.91510       53.60750
H         74.28200       27.08616       52.03056
H         72.02549       29.02169       54.62883
H         73.32518       29.96583       53.78743
H         72.09971       29.09020       52.82445
N         72.87787       26.14948       56.27264
C         72.14252       25.71638       57.45834
C         72.55063       24.28872       57.82393
O         72.91543       24.06230       58.97026
C         70.62407       25.92425       57.23558
C         69.80429       25.71619       58.52173
O         70.13018       25.14727       56.17413
H         72.77100       25.59973       55.41047
H         72.39233       26.36695       58.32618
H         70.47914       26.99407       56.96199
H         70.00234       24.22210       56.50783
H         68.73825       25.96814       58.33541
H         69.87108       24.66686       58.87562
H         70.17677       26.38792       59.32633
N         72.55074       23.28434       56.89703
C         73.02776       21.92763       57.16734
C         73.74897       21.38002       55.94656
O         73.19558       21.41592       54.85444
C         71.85965       21.01394       57.56962
C         72.36368       19.59124       57.90428
C         71.26803       18.64051       58.40020
C         70.19006       18.36377       57.34191
N         69.21935       17.38828       57.83496
H         72.25298       23.50271       55.93459
H         73.73652       21.93805       58.02644
H         71.11764       20.98723       56.74599
H         71.37510       21.44302       58.47463
H         73.13087       19.66596       58.70689
H         72.84651       19.13406       57.01334
H         70.80258       19.05420       59.32073
H         71.75744       17.67612       58.66168
H         70.66938       17.96673       56.41915
H         69.65555       19.30296       57.08629
H         68.49337       17.22715       57.10016
H         69.69643       16.48104       58.04366
H         68.75425       17.74983       58.69917
N         74.98480       20.82125       56.06983
C         75.75955       20.36251       54.92385
C         76.09436       21.54424       54.02103
O         75.74668       21.46816       52.85137
C         77.02691       19.57965       55.34681
C         76.65631       18.24657       56.02425
C         77.87719       17.46888       56.42439
O         78.68783       17.11460       55.58293
O         78.07067       17.13759       57.71538
H         75.38780       20.72530       57.01457
H         75.14940       19.63945       54.33292
H         77.67257       20.17823       56.01945
H         77.61597       19.34024       54.43322
H         76.06147       17.62492       55.31891
H         76.03842       18.43540       56.92718
N         76.71669       22.69052       54.43523
C         77.15297       23.00362       55.78249
H         78.23870       23.22860       55.77477
H         76.60375       23.89966       56.14222
H         76.98416       22.19938       56.51100
H         76.86964       23.43127       53.73352
Ca        76.16478       34.45966       49.05216
O         77.96096       32.51824       50.79109
H         78.73313       32.67881       51.38919
H         77.16922       32.62293       51.37544
O         76.45762       31.12504       47.89637
H         76.18788       30.78824       47.00510
H         77.25259       30.58512       48.13547
O         73.46936       33.15995       47.90371
H         73.22936       32.89671       46.97996
H         72.75286       33.78551       48.17916
O         76.15960       34.05405       45.87140
H         76.93293       34.61113       45.60301
H         75.36893       34.61539       45.67176
O         74.51780       31.89217       50.54091
H         73.58346       31.96037       50.86028
H         74.82061       31.00235       50.85116

Ca 1.0



