%chk=apoCaM-CA-Ng.loop1.water5.frame114.chk
%nprocshared=20
%mem=10GB
%nosave
#b3lyp/svp scf=(tight,noincore,xqc) Test 
#IOP(5/87=12) Density=Current Pop=(MK,readradii) iop(6/33=2) iop(6/42=6)

apoCaM-CA-Ng.loop1.water5.frame114 

   0  1 
C         55.99099       55.53635       92.32270
C         55.07477       54.41243       92.69981
O         54.79458       54.23424       93.87652
H         56.88622       55.12479       91.81064
H         55.46490       56.23059       91.63421
H         56.31805       56.09910       93.22231
N         54.57136       53.60464       91.72822
C         53.68792       52.47642       91.99129
C         54.32290       51.15307       91.56568
O         53.65723       50.13723       91.67790
C         52.30110       52.72775       91.35173
C         52.28140       52.81492       89.85108
O         51.60063       52.03305       89.20803
O         52.95064       53.79055       89.20905
H         54.83959       53.79763       90.75194
H         53.49360       52.38191       93.08142
H         51.88309       53.67487       91.75559
H         51.62118       51.91380       91.66995
N         55.62151       51.07270       91.14031
C         56.29695       49.82946       90.76963
C         57.40435       49.52304       91.77090
O         58.16212       50.43774       92.06650
C         56.98417       49.95636       89.39221
C         56.08141       49.91996       88.15487
C         55.15592       51.12438       87.97514
C         54.47892       51.03745       86.59644
N         53.61287       52.18584       86.34505
H         56.19650       51.92674       91.11797
H         55.58859       48.99647       90.71836
H         57.64519       49.06818       89.27301
H         57.63937       50.85540       89.36913
H         55.48759       48.98032       88.15047
H         56.77119       49.89121       87.28209
H         55.75495       52.05953       88.02546
H         54.38786       51.13857       88.77403
H         53.88076       50.10103       86.52879
H         55.26433       51.00705       85.80778
H         53.21911       52.10874       85.37957
H         52.82275       52.19233       87.02450
H         54.15876       53.07476       86.41937
N         57.67096       48.27845       92.28518
C         56.96257       47.01762       92.05001
C         56.89893       46.63106       90.56894
O         55.84126       46.77407       89.97253
C         55.56472       46.97215       92.71555
C         55.57980       47.20053       94.20100
O         54.53128       47.14936       94.82373
O         56.72376       47.47879       94.85441
H         58.49645       48.20786       92.90173
H         57.52654       46.22167       92.57747
H         55.14340       45.95875       92.54370
H         54.87591       47.70836       92.26799
N         57.93124       46.05791       89.88652
C         59.20110       45.65606       90.47860
C         60.11164       44.95861       89.47056
O         59.79290       44.92337       88.29022
H         57.75111       45.84436       88.89368
H         58.99814       44.94124       91.29698
H         59.72494       46.54477       90.89135
N         61.29505       44.38441       89.83170
C         61.77615       44.28065       91.20702
C         61.09402       43.13093       91.94514
O         60.35876       42.37276       91.32523
C         63.31491       44.08020       91.22755
C         63.78524       42.73783       90.71334
O         63.58231       42.39661       89.55953
O         64.46008       41.91062       91.53449
H         61.87726       44.00844       89.06917
H         61.58088       45.24684       91.71911
H         63.66902       44.18230       92.27494
H         63.79746       44.88921       90.63710
N         61.35218       42.90123       93.26703
C         60.89870       41.70141       93.95914
C         59.39488       41.53764       94.06064
O         58.96745       40.44369       94.40020
H         61.96794       43.55032       93.77954
H         61.32481       41.66490       94.98563
H         61.30515       40.82971       93.40177
N         58.53073       42.56207       93.81725
C         57.07646       42.41573       93.84518
C         56.51913       42.88021       92.52346
O         56.84922       43.96878       92.09086
C         56.46410       43.20393       95.01622
C         56.86378       42.54624       96.34279
O         55.06338       43.16937       94.90713
H         58.91191       43.49842       93.61298
H         56.77473       41.35454       93.98905
H         56.82073       44.26113       94.97318
H         54.71582       43.97312       95.37499
H         56.52510       41.48684       96.36013
H         57.96324       42.57580       96.48689
H         56.37554       43.05605       97.19209
N         55.66383       42.09263       91.81974
C         55.17361       42.44257       90.49252
C         53.65905       42.59453       90.49950
O         53.00538       42.07523       89.60449
C         55.66788       41.37368       89.46311
C         55.16427       39.94675       89.84884
C         57.20438       41.41644       89.35888
C         55.46735       38.86791       88.81785
H         55.35946       41.20562       92.24222
H         55.56967       43.43583       90.18040
H         55.26096       41.64666       88.46373
H         54.06305       39.95588       89.97388
H         55.60766       39.61736       90.81031
H         57.54215       42.43671       89.07686
H         57.67739       41.14115       90.32572
H         57.57051       40.72327       88.57540
H         55.01715       39.13393       87.83946
H         56.55856       38.71402       88.70827
H         55.02322       37.91049       89.16679
N         53.02759       43.31795       91.47170
C         51.57252       43.48755       91.49170
C         51.15048       44.93724       91.33171
O         49.99585       45.15537       90.99134
C         50.93865       42.84252       92.74665
C         51.34098       43.53592       94.05619
O         51.30645       41.48784       92.79714
H         53.59698       43.73445       92.22273
H         51.13302       42.96076       90.61704
H         49.83110       42.92143       92.63627
H         50.65392       41.03169       93.39054
H         50.82768       43.04463       94.91007
H         52.43384       43.47158       94.22422
H         51.03609       44.60309       94.04527
N         52.00806       45.97698       91.56776
C         51.68182       47.38948       91.37897
C         50.51139       47.83023       92.25839
O         49.89161       46.99369       92.90026
C         51.44870       47.67131       89.86319
C         52.66803       47.26578       89.01657
O         51.14123       49.01927       89.62189
H         52.95998       45.77887       91.89463
H         52.56149       47.97435       91.70698
H         50.58498       47.07272       89.50800
H         51.95444       49.55028       89.82171
H         52.46629       47.46204       87.94270
H         53.55688       47.85656       89.32169
H         52.89902       46.18594       89.13413
N         50.16171       49.14879       92.34749
C         48.97645       49.60411       93.06845
C         49.27366       50.48447       94.27697
O         48.32486       50.75782       95.00071
C         47.99345       50.30514       92.09571
C         48.56788       51.56498       91.40933
C         47.49905       52.37342       90.64668
C         46.80668       51.64425       89.47941
N         47.72565       51.34908       88.37938
H         50.73686       49.84629       91.86293
H         48.43692       48.72611       93.48473
H         47.08746       50.59102       92.67319
H         47.68399       49.57777       91.31508
H         49.39701       51.29214       90.72583
H         48.97812       52.24195       92.18902
H         47.96559       53.30345       90.25382
H         46.71750       52.67557       91.37690
H         46.00227       52.30984       89.09366
H         46.31863       50.71117       89.83226
H         48.14896       52.23552       88.01935
H         48.47669       50.69221       88.68702
H         47.18775       50.89993       87.60275
N         50.51159       50.98695       94.57017
C         50.74048       51.83090       95.74382
C         50.82789       53.28242       95.33232
O         51.69436       53.64180       94.54803
C         52.00950       51.42567       96.51635
C         51.91429       50.01786       97.11384
C         53.10569       49.73421       97.98416
O         53.34945       50.50240       99.06438
O         53.84598       48.79863       97.73094
H         51.29778       50.82473       93.92413
H         49.89317       51.74128       96.45863
H         52.13391       52.14855       97.35463
H         52.90359       51.50054       95.85892
H         51.84590       49.26810       96.29599
H         51.00480       49.93991       97.74743
N         49.94991       54.18555       95.85175
C         49.99093       55.59022       95.51646
H         49.19257       56.13073       96.06941
H         50.97360       56.01960       95.80487
H         49.82535       55.72499       94.42732
H         49.22869       53.87221       96.51961
Ca        56.66433       48.04101       97.03678
O         55.33538       50.32025       94.86775
H         55.41947       51.08639       95.48816
H         56.25544       50.17175       94.53420
O         58.76107       49.94855       96.04905
H         59.29106       49.64873       95.26858
H         59.13508       49.44137       96.81315
O         56.02764       45.41703       97.88987
H         57.01097       45.31635       97.81820
H         55.78717       44.93210       98.71828
O         56.59845       47.70295      100.12644
H         55.76407       48.18068      100.36296
H         57.24970       48.42266       99.93055
O         56.67336       50.82182       98.42816
H         56.46522       51.51447       97.75241
H         56.04433       51.00189       99.17089

Ca 1.0



