%chk=apoCaM-CA-Ng.loop2.water4.frame139.chk
%nprocshared=20
%mem=10GB
%nosave
#b3lyp/svp scf=(tight,noincore,xqc) Test 
#IOP(5/87=12) Density=Current Pop=(MK,readradii) iop(6/33=2) iop(6/42=6)

apoCaM-CA-Ng.loop2.water4.frame139 

   -2  1 
C         28.71729       63.49407      -11.41573
C         28.56645       64.66423      -12.34014
O         29.39641       64.84313      -13.22098
H         28.81371       63.85692      -10.37093
H         27.82475       62.83883      -11.49479
H         29.62136       62.90183      -11.67363
N         27.51068       65.51439      -12.19601
C         27.30353       66.66525      -13.06958
C         28.39293       67.72214      -12.90547
O         28.41529       68.64834      -13.70398
C         25.91842       67.29324      -12.78332
C         25.56895       68.41235      -13.72665
O         25.48654       68.20353      -14.92654
O         25.34348       69.65154      -13.24921
H         26.81767       65.30970      -11.45861
H         27.31111       66.29146      -14.11824
H         25.90148       67.67343      -11.73749
H         25.13402       66.51199      -12.87995
N         29.30760       67.67836      -11.88851
C         30.31080       68.70877      -11.66824
C         31.28327       68.77362      -12.84346
O         31.98057       67.79418      -13.06815
C         29.62535       70.04030      -11.29774
H         29.28432       66.91000      -11.20436
H         30.91083       68.43138      -10.77375
H         28.98899       69.89530      -10.39886
H         30.38840       70.81040      -11.05523
H         28.97569       70.42849      -12.10836
N         31.40460       69.88895      -13.62103
C         32.38381       70.04112      -14.69709
C         32.09672       69.18258      -15.93675
O         32.82283       69.34469      -16.90838
C         32.48157       71.53131      -15.11700
C         32.94608       72.42772      -13.99231
O         32.27332       72.57267      -12.98418
O         34.11046       73.09475      -14.10570
H         30.80943       70.69887      -13.41068
H         33.39169       69.76630      -14.31373
H         31.50460       71.89120      -15.50533
H         33.23243       71.62284      -15.93231
N         31.10873       68.23629      -15.99122
C         30.83966       67.41673      -17.16997
C         32.09746       66.75955      -17.69372
O         32.43430       66.96522      -18.85178
H         30.52450       68.05242      -15.16803
H         30.40602       68.05616      -17.96935
H         30.08894       66.63956      -16.90762
N         32.89182       66.03230      -16.86467
C         34.23505       65.61021      -17.24971
C         34.22089       64.33032      -18.06010
O         33.71280       63.31885      -17.59798
C         35.12347       65.47887      -16.00255
C         35.22795       66.81224      -15.29761
N         35.79107       67.88457      -15.90600
O         34.78561       66.92755      -14.16812
H         32.60281       65.94589      -15.87731
H         34.70153       66.41222      -17.86233
H         36.14660       65.15265      -16.28998
H         34.68921       64.71537      -15.31963
H         36.17708       67.81596      -16.85863
H         35.84435       68.79276      -15.42134
N         34.80567       64.31643      -19.29041
C         34.87853       63.15957      -20.16337
C         35.68870       62.02605      -19.57518
O         36.80996       62.25289      -19.14191
H         35.23212       65.18635      -19.64495
H         35.39814       63.47201      -21.09573
H         33.85720       62.82735      -20.44687
N         35.20988       60.74945      -19.62542
C         36.00762       59.58578      -19.23481
C         36.11086       59.40369      -17.71850
O         36.85204       58.52858      -17.29439
C         35.49963       58.29245      -19.94206
C         34.07775       57.85341      -19.55514
O         35.60661       58.42568      -21.33940
H         34.29704       60.60607      -20.07917
H         37.04033       59.73885      -19.62265
H         36.17528       57.45825      -19.65228
H         34.88717       59.03295      -21.65295
H         33.81607       56.91985      -20.09674
H         34.02642       57.63892      -18.47621
H         33.31809       58.62023      -19.80932
N         35.39352       60.17049      -16.84585
C         35.44884       60.03238      -15.38651
C         35.85105       61.35736      -14.74331
O         36.07207       62.32777      -15.45436
C         34.06411       59.54371      -14.83837
C         32.90521       60.50477      -15.22256
C         33.79153       58.10376      -15.29657
C         31.57789       60.16591      -14.54394
H         34.75753       60.88302      -17.22537
H         36.21476       59.28546      -15.08197
H         34.12040       59.49656      -13.73236
H         32.74513       60.50255      -16.32158
H         33.17006       61.53713      -14.91219
H         32.87779       57.69312      -14.82321
H         33.66758       58.06493      -16.39021
H         34.63395       57.44164      -15.00206
H         31.20322       59.17056      -14.85561
H         31.69481       60.19103      -13.43983
H         30.81544       60.91838      -14.83670
N         35.89320       61.47664      -13.38070
C         36.04208       62.75415      -12.69172
C         37.07710       62.68986      -11.55504
O         37.21843       63.67049      -10.83818
C         34.62738       63.12628      -12.18821
C         34.42647       64.56351      -11.79094
O         33.30772       64.93702      -11.47697
O         35.42539       65.46354      -11.84303
H         35.66468       60.65685      -12.80073
H         36.34827       63.54418      -13.41228
H         34.32437       62.44449      -11.36372
H         33.92138       62.97217      -13.03476
N         37.85300       61.58322      -11.33610
C         38.82864       61.48525      -10.24733
C         38.11261       61.45296       -8.89802
O         37.32991       60.53545       -8.70736
C         39.64475       60.17527      -10.39218
C         40.62597       59.97442       -9.25764
C         41.72346       60.83566       -9.09071
C         40.43834       58.91986       -8.34561
C         42.61220       60.64723       -8.02640
C         41.32561       58.73816       -7.28162
C         42.41183       59.60106       -7.12156
H         37.77242       60.78210      -11.97801
H         39.53081       62.33744      -10.33428
H         40.19220       60.16398      -11.35940
H         38.92653       59.32515      -10.41241
H         41.89068       61.65122       -9.78263
H         39.59808       58.24452       -8.44912
H         43.45583       61.31333       -7.90099
H         41.16853       57.92909       -6.57976
H         43.09756       59.45820       -6.29636
N         38.34656       62.34828       -7.88453
C         37.75143       62.22977       -6.55553
C         36.23214       62.33285       -6.46326
O         35.73510       62.20588       -5.35241
C         38.40042       63.36799       -5.76046
C         39.76222       63.45547       -6.41089
C         39.39091       63.35397       -7.88747
H         38.07670       61.24708       -6.14262
H         37.87660       64.32558       -5.98651
H         38.40505       63.21430       -4.65943
H         40.35760       64.35340       -6.14278
H         40.33845       62.54405       -6.12317
H         38.96593       64.31165       -8.25902
H         40.30308       63.07574       -8.44776
N         35.42689       62.54573       -7.54939
C         33.96722       62.60641       -7.45501
C         33.29902       61.42560       -8.15125
O         32.08381       61.31546       -8.05761
C         33.44051       63.91981       -8.06283
C         33.96117       65.17085       -7.34606
C         33.36688       66.40914       -7.95606
O         33.56811       66.67457       -9.12869
O         32.60360       67.23198       -7.21253
H         35.84632       62.65880       -8.48227
H         33.64378       62.55604       -6.39232
H         32.32926       63.92609       -8.00204
H         33.73207       63.95669       -9.13225
H         35.06860       65.22622       -7.41912
H         33.67506       65.12350       -6.27351
N         34.00444       60.49508       -8.85243
C         33.37579       59.35375       -9.47732
H         32.62399       59.69116      -10.22071
H         34.14306       58.74053       -9.99767
H         32.88690       58.72456       -8.70352
H         35.01661       60.58209       -8.95810
Ca        34.92982       67.63075      -11.43234
O         33.10263       69.94843      -10.18405
H         32.70590       69.52413       -9.38211
H         33.61478       70.71765       -9.82989
O         36.01584       69.21387       -9.27814
H         36.46845       69.95984       -8.81194
H         35.87447       68.52656       -8.57954
O         35.70597       70.22138      -12.83519
H         35.05067       70.83609      -12.41970
H         36.45000       70.80642      -13.12497
O         37.78287       68.11187      -12.04581
H         38.48097       67.58675      -12.51080
H         38.04860       68.09415      -11.09212

Ca 1.0



