%chk=apoCaM-CA-Ng.loop1.water4.frame487.chk
%nprocshared=20
%mem=10GB
%nosave
#b3lyp/svp scf=(tight,noincore,xqc) Test 
#IOP(5/87=12) Density=Current Pop=(MK,readradii) iop(6/33=2) iop(6/42=6)

apoCaM-CA-Ng.loop1.water4.frame487 

   0  1 
C         62.79342       40.41170       76.63527
C         63.23859       41.34117       75.54464
O         62.42517       42.07605       75.00419
H         61.70216       40.50236       76.81658
H         63.02623       39.36395       76.34992
H         63.33462       40.65683       77.57420
N         64.54791       41.36236       75.18071
C         65.10222       42.25037       74.16274
C         64.66737       41.90407       72.73334
O         65.21485       42.52105       71.84224
C         66.65545       42.23688       74.23108
C         67.18948       42.80414       75.52436
O         66.92143       42.21146       76.70305
O         67.88869       43.80550       75.50640
H         65.19009       40.73976       75.69509
H         64.79553       43.30048       74.37282
H         67.06169       42.87316       73.41239
H         67.04180       41.20584       74.08169
N         63.72765       40.97000       72.39758
C         63.42804       40.62840       71.00098
C         61.99666       40.96159       70.60353
O         61.10251       40.59325       71.35220
C         63.63002       39.12094       70.78180
C         65.09195       38.69442       70.92932
C         65.24700       37.22747       70.51443
C         66.71360       36.79015       70.54486
N         66.85174       35.41687       70.06122
H         63.22364       40.45525       73.13089
H         64.11260       41.14896       70.31486
H         63.31618       38.88310       69.74369
H         62.98432       38.53535       71.47396
H         65.43657       38.84521       71.97583
H         65.71406       39.31968       70.25222
H         64.86953       37.10992       69.47409
H         64.64385       36.57781       71.18659
H         67.10516       36.86438       71.58337
H         67.31213       37.46407       69.89168
H         67.86102       35.14610       70.08121
H         66.30865       34.76261       70.66997
H         66.50562       35.34871       69.07586
N         61.64445       41.53290       69.39966
C         62.52574       42.01962       68.32779
C         63.54140       40.99910       67.84567
O         64.72819       41.27094       67.91412
C         63.13427       43.39331       68.70556
C         62.07252       44.46711       68.68885
O         60.83564       44.18412       68.22497
O         62.33062       45.59191       69.08492
H         60.63347       41.60919       69.20583
H         61.91621       42.21594       67.42148
H         63.91355       43.70560       67.97961
H         63.60441       43.32593       69.70635
N         63.18476       39.82352       67.26190
C         61.81087       39.38491       67.08100
C         61.79803       38.09149       66.28202
O         62.50080       37.17454       66.68341
H         63.94971       39.22664       66.90766
H         61.26526       40.19207       66.56513
H         61.34567       39.21504       68.07415
N         61.09552       37.91270       65.12232
C         60.05122       38.80267       64.61969
C         60.50026       39.64464       63.43888
O         61.54946       39.40053       62.85984
C         58.80002       37.96311       64.25251
C         59.06915       36.94171       63.17050
O         59.42133       37.29394       62.05566
O         58.91964       35.62878       63.43185
H         61.26317       37.03563       64.60498
H         59.72559       39.50151       65.41015
H         57.97407       38.62358       63.91323
H         58.45252       37.42934       65.16362
N         59.69120       40.66150       63.02448
C         59.87814       41.44875       61.81759
C         61.09769       42.34744       61.73973
O         61.20100       43.02190       60.72498
H         58.82768       40.84243       63.56030
H         58.99310       42.11540       61.71126
H         59.88577       40.76056       60.94643
N         62.05166       42.43792       62.71420
C         63.21673       43.32251       62.58704
C         64.50749       42.52340       62.51398
O         64.47333       41.30713       62.63960
C         63.23486       44.37852       63.71831
C         63.35610       43.76902       65.11721
O         62.06062       45.14462       63.64119
H         61.96486       41.86320       63.56239
H         63.16893       43.88636       61.63006
H         64.11418       45.04282       63.55232
H         62.24696       46.00958       64.09233
H         62.47765       43.13567       65.34880
H         64.28240       43.16337       65.20847
H         63.39705       44.58798       65.86434
N         65.68913       43.16263       62.26002
C         66.96662       42.46861       62.10196
C         67.98270       42.85557       63.17618
O         69.01851       42.20583       63.23059
C         67.51825       42.65029       60.64980
C         67.72173       44.14433       60.26762
C         66.57985       41.93723       59.65618
C         68.35299       44.35275       58.88665
H         65.67342       44.18504       62.14196
H         66.81746       41.37764       62.25794
H         68.50297       42.13476       60.59347
H         68.38984       44.62064       61.01592
H         66.75122       44.68353       60.27051
H         65.57700       42.41421       59.64142
H         66.99538       41.94249       58.62881
H         66.46310       40.87030       59.94268
H         69.34141       43.85141       58.82982
H         67.69822       43.97211       58.07619
H         68.49404       45.43966       58.70559
N         67.76377       43.85848       64.07930
C         68.65855       44.14379       65.20167
C         67.85857       44.13404       66.49130
O         66.90529       44.89341       66.60792
C         69.42375       45.48173       65.01541
C         68.54899       46.72222       64.78325
O         70.36356       45.36280       63.97695
H         66.91872       44.44061       63.99545
H         69.44927       43.36527       65.28413
H         70.00402       45.65455       65.94989
H         69.86779       45.19400       63.13493
H         69.20158       47.61706       64.70161
H         67.97129       46.62298       63.84093
H         67.85160       46.89779       65.62477
N         68.18043       43.28585       67.51037
C         67.41035       43.25360       68.75005
C         67.48339       44.58616       69.49236
O         68.40520       45.35522       69.25390
C         67.84130       42.06395       69.66895
C         69.25368       42.22949       70.23866
O         67.79666       40.82595       68.99724
H         68.96361       42.62805       67.38220
H         66.35200       43.08899       68.45930
H         67.15153       42.01451       70.53091
H         67.10162       40.85683       68.29415
H         69.33642       43.15936       70.83806
H         69.48106       41.37224       70.90878
H         70.01044       42.24672       69.42799
N         66.50211       44.93480       70.37823
C         66.50711       46.19644       71.13171
C         65.14940       46.56110       71.78843
O         64.97337       47.72890       72.10534
C         67.68568       46.18848       72.14490
C         68.09212       47.57381       72.67460
C         69.40601       47.47358       73.47449
C         69.93219       48.85357       73.89331
N         71.22063       48.73555       74.57945
H         65.71720       44.29075       70.42343
H         66.68346       46.98624       70.36723
H         68.58343       45.79987       71.62379
H         67.46896       45.48781       72.98092
H         67.28853       48.01229       73.30278
H         68.27228       48.23895       71.80168
H         70.18172       46.99817       72.83348
H         69.25415       46.83719       74.37376
H         69.19668       49.34983       74.56323
H         70.06743       49.48591       72.98722
H         71.11906       48.16040       75.44678
H         71.92723       48.29358       73.94635
H         71.56036       49.68919       74.84145
N         64.13117       45.65984       71.97336
C         62.76961       46.00062       72.38877
C         62.70724       46.66746       73.74493
O         63.17644       46.09627       74.71979
C         61.88293       44.71969       72.43357
C         60.39387       44.95667       72.79921
C         59.65175       45.72194       71.73819
O         60.00197       46.84333       71.41153
O         58.64449       45.13589       71.07084
H         64.28366       44.67655       71.76535
H         62.36118       46.68112       71.61720
H         62.31439       44.02857       73.18893
H         61.92441       44.19569       71.45544
H         60.30173       45.47328       73.77587
H         59.91251       43.95868       72.89783
N         62.04007       47.84884       73.88002
C         61.79358       48.49215       75.15274
H         60.69512       48.55775       75.31332
H         62.23173       47.93058       76.00342
H         62.21397       49.51760       75.13804
H         61.63377       48.29771       73.04530
Ca        59.01581       45.28604       68.88432
O         57.14475       47.61805       68.80495
H         57.08007       48.45081       69.33563
H         56.42223       47.03922       69.15641
O         59.60858       44.56654       65.42718
H         58.94358       43.89606       65.12970
H         59.42215       45.36503       64.87201
O         56.78160       45.94102       66.14200
H         57.25676       46.80952       66.12204
H         56.45410       45.81732       65.21587
O         60.09746       47.71707       67.21454
H         60.19698       47.82054       68.19445
H         60.90376       47.21497       66.93482

Ca 1.0



