%chk=apoCaM-CA-Ng.loop2.water2.frame968.chk
%nprocshared=20
%mem=10GB
%nosave
#b3lyp/svp scf=(tight,noincore,xqc) Test 
#IOP(5/87=12) Density=Current Pop=(MK,readradii) iop(6/33=2) iop(6/42=6)

apoCaM-CA-Ng.loop2.water2.frame968 

   -2  1 
C         62.17786       29.39729       51.51707
C         61.65654       28.00768       51.29738
O         60.54898       27.85126       50.80250
H         63.12245       29.53460       50.94988
H         61.44194       30.15627       51.17609
H         62.37763       29.55425       52.59814
N         62.41602       26.93502       51.65736
C         61.97101       25.55045       51.51288
C         61.86515       25.09297       50.04593
O         61.45282       23.96369       49.82635
C         62.91248       24.63199       52.32549
C         62.39352       23.22532       52.44449
O         63.05835       22.28699       52.03669
O         61.19734       22.99384       53.02036
H         63.32599       27.12301       52.10812
H         60.96516       25.47521       51.98546
H         62.99192       25.02964       53.36167
H         63.92784       24.64038       51.87227
N         62.16783       25.91686       48.99480
C         61.97310       25.55449       47.59089
C         63.18295       25.97261       46.75327
O         63.60326       27.10974       46.91695
C         60.75173       26.31467       47.06892
H         62.47246       26.88020       49.17987
H         61.71501       24.48713       47.48858
H         60.56651       26.05236       46.00508
H         59.85311       26.02933       47.65701
H         60.89602       27.41304       47.15026
N         63.76386       25.21850       45.76701
C         63.38230       23.87634       45.33056
C         64.61691       22.98380       45.18917
O         65.72656       23.47245       45.35805
C         62.51738       23.96315       44.05013
C         63.14265       24.68899       42.89021
O         63.47117       25.99226       42.98784
O         63.27071       24.11997       41.82119
H         64.51081       25.68205       45.22530
H         62.75201       23.38463       46.08918
H         61.58275       24.51034       44.29820
H         62.22781       22.93798       43.73416
N         64.49120       21.63780       44.97750
C         65.62647       20.71906       45.04517
C         65.60236       19.63362       43.98124
O         65.42268       18.48248       44.35269
H         63.54391       21.23382       44.91489
H         65.54778       20.20561       46.02795
H         66.60393       21.24487       45.03366
N         65.77757       19.86089       42.64887
C         65.99133       21.17156       42.06752
C         67.46807       21.54417       42.11976
O         68.28971       20.81854       41.57460
C         65.54258       21.16618       40.59561
C         65.18065       22.56001       40.06325
N         65.42891       22.68682       38.63317
O         65.69956       23.63922       40.80147
H         65.69869       19.05071       42.01201
H         65.33038       21.89180       42.59081
H         64.59839       20.59033       40.48724
H         66.30234       20.65199       39.96434
H         65.16436       21.80144       38.14663
H         64.75278       23.39602       38.28131
N         67.87023       22.68767       42.72506
C         69.24493       23.16223       42.74092
C         69.76437       23.50210       41.35862
O         70.89165       23.15624       41.03603
H         67.16047       23.27201       43.18489
H         69.91618       22.44284       43.25729
H         69.25912       24.11225       43.31754
N         68.98992       24.22505       40.50746
C         69.43737       24.79279       39.23736
C         69.12675       26.28775       39.28887
O         68.47776       26.71826       40.23550
C         68.70404       24.05064       38.07890
C         69.06896       24.50833       36.65807
O         68.99119       22.67962       38.18420
H         68.02194       24.42103       40.79581
H         70.53322       24.65066       39.11223
H         67.61490       24.20529       38.21463
H         68.24119       22.19154       37.75167
H         68.72935       25.54172       36.45684
H         70.16226       24.41608       36.48371
H         68.54132       23.87351       35.91420
N         69.51846       27.14507       38.30770
C         69.04078       28.52010       38.26252
C         68.10159       28.58116       37.08195
O         68.55131       28.41392       35.95595
C         70.21990       29.53291       38.18955
C         69.75816       31.01813       38.18428
C         71.22664       29.28311       39.32757
C         69.04237       31.48764       39.45744
H         70.10366       26.80631       37.53097
H         68.45764       28.75142       39.17629
H         70.76467       29.35798       37.23522
H         69.08781       31.19285       37.31859
H         70.65096       31.66611       38.04428
H         70.74646       29.38110       40.32301
H         71.64997       28.25952       39.25367
H         72.07224       29.99982       39.25757
H         69.69748       31.39781       40.34812
H         68.76377       32.55775       39.35500
H         68.11655       30.91009       39.62549
N         66.76034       28.73951       37.27799
C         65.79176       28.71129       36.19172
C         65.18838       30.07242       36.01702
O         63.98612       30.20497       35.83511
C         64.74342       27.61475       36.45275
C         65.34006       26.26933       36.19770
O         65.55429       25.37835       37.17109
O         65.63200       25.95543       35.05559
H         66.40403       28.88449       38.23535
H         66.29018       28.51329       35.21639
H         63.87908       27.69849       35.75727
H         64.35605       27.71334       37.49119
N         66.02079       31.14568       35.99428
C         65.59851       32.46159       35.58612
C         65.52549       33.40324       36.77899
O         66.54176       33.61994       37.42181
C         66.61766       32.99019       34.55911
C         66.19690       34.33382       34.04191
C         66.91018       35.48686       34.40328
C         65.06991       34.44428       33.21370
C         66.48999       36.73854       33.95010
C         64.65910       35.69598       32.75416
C         65.36588       36.84327       33.12547
H         67.01668       31.01505       36.21960
H         64.61779       32.39085       35.07930
H         66.73278       32.28591       33.70574
H         67.60992       33.05948       35.06066
H         67.77642       35.41858       35.05069
H         64.51298       33.56055       32.92552
H         67.03401       37.62643       34.24290
H         63.79027       35.77463       32.11467
H         65.04155       37.81326       32.77547
N         64.36515       34.05868       37.09653
C         64.29370       35.14564       38.05996
C         64.28385       34.70860       39.51376
O         64.17260       35.59172       40.35518
C         62.99944       35.86527       37.65974
C         62.12222       34.71608       37.21814
C         63.10425       33.88795       36.40101
H         65.13310       35.86266       37.92144
H         62.56876       36.54170       38.42797
H         63.20947       36.47068       36.74695
H         61.84133       34.13972       38.12862
H         61.19834       34.99652       36.66934
H         62.75711       32.83183       36.37370
H         63.21252       34.29016       35.36989
N         64.40991       33.40782       39.91475
C         64.41119       33.05106       41.33458
C         65.57437       33.68013       42.10121
O         65.54128       33.65457       43.32385
C         64.37437       31.52010       41.54470
C         65.63940       30.79961       41.04966
C         65.51488       29.31349       41.21702
O         64.63769       28.69892       40.63065
O         66.38405       28.64821       41.99975
H         64.47297       32.66388       39.20575
H         63.46747       33.45764       41.76368
H         63.48515       31.12067       41.00993
H         64.24435       31.30354       42.62913
H         66.51926       31.15872       41.62732
H         65.81009       31.00971       39.97528
N         66.63268       34.26144       41.46375
C         67.70108       34.91700       42.18568
H         68.46212       35.29714       41.47071
H         67.29305       35.77999       42.75460
H         68.18932       34.20610       42.88433
H         66.69842       34.24488       40.43661
Ca        65.70817       25.43866       39.40796
O         66.74564       25.89958       42.87704
H         66.01018       25.31918       43.19345
H         67.11696       26.29760       43.70355
O         62.57926       26.27626       39.55337
H         62.15060       26.47389       38.68308
H         61.87387       25.82215       40.07928

Ca 1.0



