%chk=apoCaM-CA-Ng.loop1.water3.frame1357.chk
%nprocshared=20
%mem=10GB
%nosave
#b3lyp/svp scf=(tight,noincore,xqc) Test 
#IOP(5/87=12) Density=Current Pop=(MK,readradii) iop(6/33=2) iop(6/42=6)

apoCaM-CA-Ng.loop1.water3.frame1357 

   0  1 
C         74.42714       27.27349      104.62295
C         74.99018       28.46392      105.33794
O         74.72747       29.58304      104.92662
H         73.80383       27.59051      103.75939
H         75.25803       26.63860      104.25003
H         73.79848       26.68298      105.32136
N         75.77954       28.28526      106.43268
C         76.38985       29.37986      107.18153
C         77.90598       29.26455      107.18010
O         78.53947       29.78281      108.09128
C         75.81149       29.43255      108.61549
C         76.11395       28.24139      109.49347
O         76.79062       27.30563      109.09676
O         75.64062       28.22225      110.75326
H         75.96043       27.31964      106.74449
H         76.14077       30.35912      106.72692
H         74.70882       29.54735      108.54232
H         76.20914       30.33700      109.12648
N         78.56294       28.61502      106.17512
C         80.01129       28.44172      106.15930
C         80.71917       29.78386      106.27969
O         81.48471       29.91462      107.22506
C         80.47953       27.56798      104.96909
C         79.93886       26.12998      105.13385
C         80.39712       25.17831      104.02483
C         79.86214       23.76104      104.29690
N         80.26987       22.82567      103.25054
H         78.01423       28.22618      105.39429
H         80.29938       27.86618      107.06987
H         81.59055       27.51577      104.97951
H         80.16294       27.99278      103.99527
H         78.82861       26.13654      105.14935
H         80.29852       25.72840      106.10766
H         81.50808       25.14963      103.99195
H         80.01569       25.54118      103.04580
H         78.75051       23.78446      104.35077
H         80.24912       23.40099      105.27709
H         81.31301       22.77297      103.20064
H         79.89409       21.87635      103.47832
H         79.88327       23.12949      102.32775
N         80.49478       30.87538      105.49300
C         79.62687       30.97809      104.32039
C         78.39024       31.80641      104.62787
O         78.29175       32.38472      105.70098
C         80.44632       31.51973      103.11755
C         81.44981       32.58313      103.53388
O         81.07770       33.78350      104.02308
O         82.63830       32.30615      103.51390
H         80.96721       31.74003      105.79901
H         79.21683       29.98752      104.04865
H         79.79275       31.85126      102.28056
H         81.04539       30.66232      102.73903
N         77.32639       31.76496      103.77106
C         76.01567       32.28318      104.12894
C         75.88374       33.77633      104.06520
O         76.77454       34.46080      103.58412
H         77.39996       31.19841      102.91189
H         75.76594       31.94099      105.15267
H         75.24831       31.86668      103.44032
N         74.75134       34.34621      104.56180
C         74.45367       35.77184      104.51013
C         73.03353       35.98743      103.97073
O         72.26425       35.03369      103.94822
C         74.57985       36.34217      105.94103
C         75.99137       36.22852      106.44646
O         76.89695       36.81233      105.87164
O         76.26267       35.49146      107.54011
H         74.07190       33.72938      105.03793
H         75.18075       36.28245      103.84402
H         73.89379       35.78744      106.61823
H         74.29871       37.40799      105.99492
N         72.56500       37.19604      103.53950
C         73.38602       38.38247      103.37003
C         74.34141       38.22623      102.21065
O         74.24447       37.26925      101.46106
H         71.57044       37.27271      103.27608
H         73.92748       38.61509      104.30114
H         72.74221       39.25899      103.14292
N         75.31332       39.15780      102.02324
C         76.28385       39.13167      100.92908
C         77.00542       37.78388      100.84389
O         77.48138       37.29252      101.85777
C         77.26409       40.31826      101.10432
C         78.24340       40.44912       99.94091
O         77.98568       40.18870      102.30441
H         75.36412       39.92327      102.71268
H         75.73810       39.29685       99.97375
H         76.66448       41.26238      101.11117
H         77.59572       40.82346      102.96117
H         77.69163       40.57810       98.98554
H         78.88556       41.34160      100.10033
H         78.89191       39.55214       99.86879
N         77.11862       37.14077       99.63739
C         77.70794       35.81372       99.43995
C         79.15108       35.79252      100.02357
O         79.36407       34.61910      100.72322
C         76.72858       34.68727       99.94398
C         75.30868       34.85319       99.33050
C         77.20523       33.23550       99.64023
C         75.22535       34.69442       97.80568
H         76.76485       37.62075       98.79569
H         77.78144       35.63046       98.34722
H         76.61573       34.79068      101.04253
H         74.90260       35.84790       99.58694
H         74.63622       34.09690       99.79126
H         78.10220       32.89708      100.18181
H         76.42563       32.50986       99.95103
H         77.41843       33.10097       98.56044
H         74.16986       34.81165       97.48573
H         75.82488       35.46701       97.28392
H         75.55871       33.68818       97.48064
N         80.15478       35.85163       98.95679
C         81.56330       35.84523       99.39374
C         82.30005       37.13170       99.03880
O         83.50976       37.14678       99.20219
C         82.27267       34.57663       98.84397
C         82.29832       34.50172       97.31614
O         81.63362       33.42493       99.33346
H         79.91786       36.29526       98.04007
H         81.63535       35.75802      100.50178
H         83.33550       34.56895       99.18580
H         81.91891       33.31434      100.27902
H         82.83066       33.57719       97.00214
H         81.26722       34.46329       96.90686
H         82.83349       35.37416       96.88817
N         81.65389       38.25256       98.58622
C         82.33392       39.50176       98.23987
C         82.99070       40.08196       99.49113
O         82.31362       40.74885      100.25921
C         81.30614       40.48762       97.61363
C         81.94248       41.77870       97.10418
O         80.65667       39.85841       96.53490
H         80.63129       38.23214       98.48550
H         83.10179       39.27263       97.46757
H         80.56320       40.75308       98.40140
H         79.68278       40.03573       96.62679
H         81.14824       42.43564       96.68706
H         82.45129       42.32351       97.92499
H         82.67365       41.55222       96.29999
N         84.27597       39.74232       99.81237
C         84.94521       40.02647      101.08226
C         84.15852       39.43388      102.24342
O         83.09549       39.93808      102.57615
C         85.23348       41.52049      101.32771
C         86.33323       42.11753      100.43330
C         85.96531       42.24106       98.95100
C         87.10319       42.92681       98.18130
N         86.76139       43.08790       96.76968
H         84.80458       39.16403       99.14218
H         85.93208       39.51151      101.05520
H         85.62837       41.60388      102.36542
H         84.30416       42.12596      101.27504
H         87.26248       41.51455      100.54253
H         86.54340       43.13918      100.81885
H         85.03768       42.84582       98.85580
H         85.79599       41.24163       98.50509
H         88.03125       42.31762       98.26805
H         87.30103       43.92878       98.62375
H         86.59858       42.15336       96.32958
H         85.90392       43.67924       96.67501
H         87.55463       43.56119       96.27957
N         84.62105       38.32546      102.88628
C         83.87909       37.65742      103.94993
C         83.20565       36.40747      103.39933
O         81.98498       36.38842      103.44767
C         84.73679       37.40321      105.20836
C         85.25631       38.71381      105.81762
C         86.05740       38.44931      107.06074
O         85.66100       38.96137      108.24161
O         87.07592       37.77816      107.00613
H         85.49752       37.91025      102.54988
H         83.04675       38.31420      104.29525
H         85.59639       36.74375      104.99290
H         84.10220       36.89230      105.96696
H         84.39316       39.36698      106.07309
H         85.89957       39.24830      105.08633
N         83.83336       35.33573      102.82580
C         85.25491       35.12565      102.65040
H         85.88799       35.91609      103.06539
H         85.54325       34.17718      103.14892
H         85.47727       35.03972      101.56619
H         83.23385       34.58380      102.45590
Ca        79.49503       34.88651      102.93756
O         80.33516       38.29002      101.90495
H         81.19009       38.17829      101.42150
H         80.40135       39.19056      102.30874
O         79.48678       35.07499      106.37808
H         79.54347       34.30628      106.99913
H         79.26774       35.84419      106.96089
O         79.91849       38.26686      105.14303
H         80.03555       38.21740      106.12490
H         80.29630       39.14744      104.89370

Ca 1.0



