%chk=apoCaM-CA-Ng.loop2.water3.frame445.chk
%nprocshared=20
%mem=10GB
%nosave
#b3lyp/svp scf=(tight,noincore,xqc) Test 
#IOP(5/87=12) Density=Current Pop=(MK,readradii) iop(6/33=2) iop(6/42=6)

apoCaM-CA-Ng.loop2.water3.frame445 

   -2  1 
C         89.25112       83.01583       70.90792
C         90.70795       83.21847       70.61329
O         91.49612       83.32454       71.54228
H         88.66048       83.84652       70.46727
H         88.91309       82.05474       70.46795
H         89.06910       82.99167       72.00405
N         91.13904       83.28537       69.32157
C         92.53832       83.49433       68.95798
C         93.00146       84.81758       69.52575
O         92.37487       85.82664       69.23158
C         92.69620       83.46846       67.42501
C         94.13884       83.56307       67.01446
O         95.01693       82.62404       67.41686
O         94.51898       84.48109       66.30600
H         90.43607       83.18769       68.57170
H         93.14085       82.66008       69.38028
H         92.11010       84.29874       66.97013
H         92.29423       82.50895       67.03429
N         94.06737       84.88702       70.37845
C         94.38495       86.11220       71.10017
C         93.27180       86.31625       72.11066
O         93.22279       85.59009       73.09524
C         95.75364       86.00940       71.78603
H         94.62136       84.03621       70.56043
H         94.44177       86.95356       70.37285
H         95.99044       86.95096       72.32488
H         95.77666       85.16299       72.50573
H         96.54071       85.83557       71.02027
N         92.23349       87.14893       71.82283
C         90.96130       87.06183       72.53499
C         90.92510       87.91136       73.79933
O         89.90432       87.90884       74.47287
C         89.82232       87.42268       71.55571
C         88.46662       87.09712       72.10870
O         87.61916       87.96719       72.22038
O         88.17805       85.83135       72.46442
H         92.26621       87.66847       70.93177
H         90.79271       85.99682       72.81706
H         89.93838       86.81222       70.63289
H         89.88948       88.49645       71.27432
N         91.99033       88.66512       74.19430
C         91.96297       89.53781       75.35765
C         91.84843       88.84285       76.70369
O         91.86579       89.56127       77.69368
H         92.84793       88.67896       73.62445
H         91.12664       90.26202       75.24666
H         92.91130       90.11733       75.37761
N         91.73077       87.48856       76.84919
C         91.65514       86.83574       78.15527
C         92.73701       85.78710       78.29482
O         93.38878       85.44570       77.31581
C         90.28078       86.15995       78.32343
C         89.16966       87.17432       78.36676
N         88.21569       87.19674       77.41110
O         89.12675       87.98201       79.28273
H         91.69160       86.88224       76.01876
H         91.80042       87.57276       78.97549
H         90.23738       85.57931       79.27055
H         90.12878       85.44492       77.48365
H         88.24744       86.53711       76.62239
H         87.45115       87.88558       77.45611
N         92.97361       85.22655       79.51388
C         93.90410       84.12973       79.72337
C         93.22129       82.98906       80.43830
O         92.08840       83.14047       80.87933
H         92.46208       85.59106       80.33344
H         94.75687       84.47065       80.34767
H         94.30618       83.76167       78.75521
N         93.86347       81.79715       80.59373
C         93.27254       80.67963       81.33197
C         91.90948       80.25832       80.78442
O         91.16272       79.62087       81.51325
C         94.23066       79.46019       81.41342
C         94.54045       78.82766       80.04093
O         95.41797       79.80725       82.08592
H         94.80683       81.70533       80.18921
H         93.09872       81.04790       82.36818
H         93.73493       78.67373       82.02304
H         96.01930       80.27467       81.44965
H         93.61292       78.48382       79.54623
H         95.04638       79.54675       79.36408
H         95.20236       77.94645       80.17452
N         91.52634       80.56865       79.51325
C         90.21373       80.26458       78.94635
C         89.55858       81.57043       78.49937
O         90.20447       82.61016       78.50610
C         90.42379       79.18974       77.82162
C         90.66211       77.81729       78.51232
C         89.27857       79.07883       76.79850
C         91.11764       76.69755       77.57854
H         92.20173       81.03936       78.89225
H         89.52978       79.85038       79.72048
H         91.32323       79.48739       77.23639
H         89.72618       77.50111       79.02569
H         91.44396       77.91652       79.28861
H         88.33338       78.75531       77.27930
H         89.13609       80.04597       76.27464
H         89.53067       78.35453       75.99907
H         90.36201       76.47208       76.80104
H         92.08095       76.97134       77.10015
H         91.26773       75.77156       78.17393
N         88.24364       81.58594       78.13553
C         87.53574       82.77469       77.68308
C         86.30134       83.03679       78.56629
O         85.41174       83.77194       78.16425
C         87.22767       82.56993       76.17910
C         86.75765       83.80799       75.46479
O         86.58881       83.80423       74.13049
O         86.53849       84.84120       76.07401
H         87.70608       80.70823       78.16278
H         88.19273       83.67026       77.74169
H         86.49982       81.74126       76.03777
H         88.17987       82.28505       75.68083
N         86.23023       82.53698       79.83584
C         85.12793       82.81226       80.75730
C         83.84720       82.11427       80.31058
O         83.88293       80.89934       80.16520
C         85.50000       82.29334       82.17024
C         84.41364       82.54509       83.19335
C         84.04957       83.85564       83.54876
C         83.75262       81.46320       83.80165
C         83.03530       84.07726       84.48652
C         82.73982       81.68925       84.73825
C         82.38005       82.99500       85.07941
H         87.02329       81.98342       80.19220
H         84.99561       83.91123       80.83804
H         86.43521       82.78339       82.51874
H         85.70518       81.20176       82.09965
H         84.54668       84.70540       83.09840
H         84.01450       80.44401       83.54659
H         82.75578       85.08839       84.75305
H         82.23248       80.85099       85.19819
H         81.59435       83.16752       85.80373
N         82.65394       82.77245       80.15516
C         81.39483       82.07400       79.94823
C         81.17924       81.64581       78.51070
O         80.21575       80.93347       78.26291
C         80.35193       83.10684       80.38806
C         80.98845       84.40117       79.91726
C         82.44566       84.19663       80.33129
H         81.31988       81.18107       80.60893
H         79.31475       82.91751       80.03621
H         80.34140       83.14238       81.50195
H         80.93283       84.41413       78.80475
H         80.52784       85.33537       80.30226
H         83.10671       84.81817       79.69001
H         82.59135       84.44842       81.40024
N         81.98539       82.07569       77.50097
C         81.75992       81.68602       76.11855
C         82.11349       80.22604       75.93060
O         81.25677       79.45811       75.51450
C         82.56448       82.57352       75.15593
C         82.05979       84.03424       75.17763
C         82.80377       84.83330       74.15608
O         82.80888       84.47571       72.98855
O         83.56793       85.87229       74.52603
H         82.75117       82.73278       77.70894
H         80.68805       81.84014       75.85571
H         82.42147       82.17447       74.12697
H         83.65094       82.53166       75.39767
H         82.21175       84.48025       76.18474
H         80.97755       84.06762       74.93201
N         83.36165       79.76792       76.22412
C         83.73019       78.38015       76.04537
H         84.78269       78.22235       76.36309
H         83.07158       77.72818       76.65823
H         83.63552       78.09896       74.97474
H         84.07135       80.41981       76.59169
Ca        85.52684       85.67427       73.49934
O         86.38793       88.23175       75.04041
H         87.33120       88.47202       74.86298
H         86.04833       88.97150       75.60342
O         85.08898       85.37623       70.52909
H         85.89186       84.99243       70.09513
H         84.45501       84.61837       70.59386
O         84.53919       88.48913       72.49952
H         83.61195       88.21444       72.71128
H         84.72455       89.23658       73.12178

Ca 1.0



