%chk=apoCaM-CA-Ng.loop2.water4.frame1451.chk
%nprocshared=20
%mem=10GB
%nosave
#b3lyp/svp scf=(tight,noincore,xqc) Test 
#IOP(5/87=12) Density=Current Pop=(MK,readradii) iop(6/33=2) iop(6/42=6)

apoCaM-CA-Ng.loop2.water4.frame1451 

   -2  1 
C         44.64474       99.21913      120.89425
C         44.34025       98.70934      119.50738
O         45.28695       98.34606      118.82490
H         45.34657      100.07497      120.82878
H         43.76139       99.55747      121.46414
H         45.13282       98.40388      121.47209
N         43.07933       98.59943      118.99116
C         41.85054       98.93717      119.70860
C         41.51500      100.42796      119.67127
O         40.61921      100.82476      120.40377
C         40.65932       98.08411      119.20956
C         40.30395       98.25049      117.75793
O         40.94875       98.98366      117.03034
O         39.26968       97.55663      117.24810
H         43.00436       98.16608      118.05851
H         41.96960       98.62849      120.76753
H         39.76202       98.33063      119.81702
H         40.89924       97.01152      119.37183
N         42.15397      101.30634      118.84049
C         41.87056      102.74085      118.81733
C         41.27502      103.20687      117.49244
O         41.11930      104.41065      117.33068
C         43.16297      103.50338      119.12565
H         42.87564      100.95766      118.19235
H         41.13753      103.02197      119.60556
H         43.93229      103.30329      118.35048
H         42.96844      104.59776      119.16489
H         43.55496      103.19268      120.11738
N         40.84464      102.33639      116.52891
C         40.21004      102.80422      115.29763
C         39.36072      101.71706      114.59045
O         38.82947      100.78568      115.48149
C         41.28630      103.34242      114.32914
C         42.30473      102.27939      113.98505
O         43.47907      102.44028      114.27630
O         41.92956      101.14630      113.35895
H         40.89646      101.33027      116.70779
H         39.48973      103.60694      115.57664
H         41.80756      104.20149      114.80150
H         40.82108      103.71114      113.39157
N         38.30118      102.35961      113.79247
C         37.20140      101.49303      113.34130
C         37.61907      100.41691      112.36559
O         38.80134      100.22535      112.11963
H         38.71688      102.85254      112.97047
H         36.45381      102.14263      112.83799
H         36.68685      101.02564      114.21020
N         36.65250       99.66480      111.76778
C         36.92538       98.53719      110.87570
C         37.74541       98.93206      109.65002
O         38.04230      100.10316      109.45472
C         35.59419       97.87433      110.44106
C         34.77644       97.40671      111.62216
N         35.25497       96.46657      112.46965
O         33.66682       97.88224      111.81242
H         35.67129       99.89036      111.99590
H         37.52904       97.79587      111.44289
H         35.78397       96.99304      109.79457
H         35.00392       98.61139      109.85142
H         36.18452       96.04746      112.32406
H         34.69422       96.15674      113.27731
N         38.17745       97.96374      108.78928
C         39.05452       98.21401      107.65406
C         40.44733       98.63634      108.09829
O         40.66520       98.78514      109.29165
H         37.89113       96.98747      108.95245
H         38.60021       98.97923      106.98679
H         39.15909       97.26554      107.08508
N         41.47369       98.85583      107.22386
C         41.39087       98.71251      105.77230
C         42.40628       97.70000      105.21856
O         42.34917       97.44104      104.02442
C         41.62640      100.09841      105.11717
C         40.57094      101.12191      105.55605
O         42.90338      100.57145      105.46540
H         42.37039       99.17652      107.62174
H         40.38559       98.35368      105.47185
H         41.55848       99.97855      104.01061
H         43.13897      101.28460      104.81638
H         39.55560      100.77507      105.27239
H         40.60667      101.28424      106.65452
H         40.76209      102.09626      105.05772
N         43.39413       97.14201      105.98726
C         44.47166       96.29826      105.45950
C         44.62104       95.03150      106.31293
O         44.78741       95.17984      107.51617
C         45.80443       97.11297      105.50389
C         45.75304       98.40715      104.64492
C         47.02340       96.26068      105.10627
C         45.60990       98.19032      103.13233
H         43.46291       97.39700      106.98135
H         44.29443       96.03876      104.40207
H         45.97026       97.43691      106.55620
H         46.68918       98.98217      104.81482
H         44.91635       99.04460      104.99105
H         47.95016       96.87015      105.16194
H         47.15006       95.41019      105.80621
H         46.91781       95.85095      104.08118
H         44.67281       97.65884      102.87892
H         45.58760       99.17668      102.62327
H         46.47103       97.62284      102.72487
N         44.68131       93.75791      105.80529
C         44.51049       93.40402      104.39564
C         45.03189       92.00224      104.05441
O         45.39575       91.23944      104.93696
C         43.00326       93.49482      104.03732
C         42.15618       92.60813      104.92219
O         41.21800       93.15461      105.71947
O         42.31373       91.39717      104.92671
H         44.89013       93.00375      106.47721
H         45.12536       94.08837      103.77480
H         42.83111       93.21662      102.97652
H         42.64708       94.53559      104.16517
N         45.05253       91.60510      102.74623
C         45.34866       90.24850      102.29165
C         46.49883       90.24639      101.28956
O         46.41803       91.01094      100.33820
C         44.05800       89.70018      101.64815
C         44.15618       88.25245      101.22316
C         44.90687       87.86879      100.09553
C         43.47051       87.26645      101.95278
C         44.97353       86.52563       99.71496
C         43.54411       85.92471      101.57166
C         44.29447       85.55411      100.45363
H         44.76614       92.28739      102.02752
H         45.56033       89.58681      103.14745
H         43.73402       90.32066      100.78367
H         43.26689       89.79294      102.42516
H         45.43119       88.60282       99.49940
H         42.88429       87.53432      102.82301
H         45.54909       86.23860       98.84437
H         43.01693       85.17300      102.14401
H         44.34624       84.51466      100.15801
N         47.56296       89.37520      101.35694
C         47.79476       88.33737      102.35571
C         47.88544       88.85545      103.76912
O         47.22480       88.31157      104.64084
C         49.14641       87.73023      101.94826
C         49.09541       87.85976      100.44784
C         48.54519       89.27566      100.29094
H         46.99586       87.56654      102.26329
H         49.98587       88.38127      102.28487
H         49.32420       86.70462      102.33805
H         50.05458       87.67102       99.92015
H         48.33347       87.13572      100.07530
H         49.32871       90.04823      100.45140
H         48.10445       89.36644       99.27421
N         48.67681       89.92381      104.06154
C         48.82106       90.44995      105.41147
C         49.57993       89.43986      106.26040
O         50.71855       89.14461      105.92511
C         49.58238       91.79247      105.38620
C         48.77354       92.88824      104.67114
C         49.55958       94.16426      104.59064
O         49.80911       94.66260      103.50446
O         49.98453       94.77225      105.71475
H         49.17916       90.38422      103.28715
H         47.81583       90.65776      105.82889
H         50.56347       91.65212      104.87920
H         49.77105       92.12780      106.43024
H         47.83147       93.07468      105.23097
H         48.50338       92.56693      103.64234
N         49.05014       88.84544      107.36774
C         47.71250       89.09244      107.86150
H         46.95966       88.80403      107.10033
H         47.52900       88.48063      108.76994
H         47.59115       90.16332      108.12621
H         49.63241       88.17121      107.88866
Ca        39.75299       98.90467      114.56384
O         40.10217       95.76930      114.68394
H         39.61177       95.18859      114.04951
H         40.83004       95.19693      115.03388
O         37.16214       97.70726      114.41994
H         37.43542       96.77823      114.62532
H         37.20293       98.17743      115.29001
O         40.92301       97.48315      112.09509
H         41.10486       98.43485      111.89085
H         41.37570       96.98098      111.37190
O         42.96652       97.51600      114.75883
H         43.68345       97.73558      114.11218
H         43.01175       96.53136      114.85220

Ca 1.0



