%chk=apoCaM-CA-Ng.loop1.water3.frame1044.chk
%nprocshared=20
%mem=10GB
%nosave
#b3lyp/svp scf=(tight,noincore,xqc) Test 
#IOP(5/87=12) Density=Current Pop=(MK,readradii) iop(6/33=2) iop(6/42=6)

apoCaM-CA-Ng.loop1.water3.frame1044 

   0  1 
C         11.93239       72.57659       45.84504
C         11.66251       71.21702       46.42456
O         12.45569       70.75225       47.22762
H         11.97561       73.32856       46.65946
H         12.90304       72.56281       45.30629
H         11.13996       72.87731       45.12713
N         10.55485       70.51897       46.05417
C         10.20738       69.19151       46.57246
C         11.15531       68.07742       46.12866
O         10.83125       66.92561       46.41887
C          8.75646       68.82004       46.16976
C          8.56874       68.55680       44.69490
O          8.78251       69.52709       43.78670
O          8.20159       67.45574       44.31686
H          9.89699       70.98161       45.41173
H         10.20779       69.24107       47.68352
H          8.06199       69.62343       46.49465
H          8.46899       67.89911       46.72734
N         12.31007       68.29227       45.43446
C         13.13995       67.22262       44.89089
C         13.39297       66.11790       45.92073
O         13.02189       64.99581       45.61273
C         14.39421       67.78834       44.17414
C         15.02946       66.79030       43.18660
C         16.09013       67.48193       42.30884
C         16.59721       66.55538       41.19214
N         17.54595       67.25168       40.32078
H         12.60466       69.25631       45.22463
H         12.52635       66.76040       44.08228
H         15.14696       68.17833       44.88985
H         14.04518       68.64246       43.55093
H         14.22908       66.41926       42.50860
H         15.46737       65.92344       43.72646
H         16.93975       67.82405       42.93874
H         15.63002       68.37080       41.82244
H         15.73341       66.21609       40.57672
H         17.08549       65.66015       41.63499
H         17.85441       66.60354       39.56009
H         17.08904       68.08462       39.88173
H         18.38311       67.55737       40.86737
N         13.87858       66.30205       47.18890
C         14.40168       67.52672       47.78954
C         13.47797       68.09082       48.87276
O         12.42637       67.52395       49.13919
C         15.85068       67.24777       48.27705
C         16.01691       65.96249       49.06410
O         15.58941       65.82630       50.33168
O         16.54373       65.00311       48.52316
H         13.86153       65.46669       47.79680
H         14.45368       68.33626       47.03479
H         16.29403       68.10338       48.82574
H         16.45059       67.11880       47.35071
N         13.77605       69.29294       49.45100
C         12.87960       70.05808       50.31554
C         12.61381       69.46225       51.71312
O         13.82181       69.34487       52.39229
H         14.65243       69.76047       49.17048
H         11.91448       70.20962       49.78702
H         13.33168       71.06298       50.47442
N         11.75188       70.39519       52.45574
C         11.46738       70.04093       53.86496
C         11.06228       71.30532       54.60841
O         10.24685       72.04824       54.07959
C         10.31999       69.01876       53.99640
C         10.68302       67.67900       53.43483
O         11.73770       67.00538       53.93347
O         10.01134       67.18271       52.54541
H         10.85677       70.55519       51.93520
H         12.36169       69.60416       54.34991
H          9.40019       69.41097       53.50890
H         10.09766       68.86802       55.07616
N         11.50171       71.61432       55.86569
C         12.36083       70.77465       56.68641
C         13.80010       70.76484       56.23839
O         14.14737       71.43439       55.27468
H         11.12338       72.46620       56.30957
H         11.94758       69.74426       56.72920
H         12.36269       71.17885       57.72221
N         14.71245       70.03629       56.94590
C         16.14005       70.04230       56.63401
C         16.42528       69.49684       55.24608
O         15.54261       68.93386       54.61642
C         16.96813       69.27977       57.70299
C         16.65299       67.78060       57.76642
O         16.73575       69.84445       58.96938
H         14.37599       69.50994       57.76627
H         16.46797       71.10602       56.65230
H         18.05195       69.35944       57.44445
H         17.52011       70.41068       59.19340
H         16.87813       67.29095       56.79560
H         17.28163       67.30746       58.54920
H         15.59058       67.59758       58.02561
N         17.65908       69.69405       54.69903
C         18.06853       69.30362       53.35475
C         18.13910       67.78357       53.21775
O         17.13899       67.10817       53.41635
C         17.16051       69.91401       52.23906
C         16.69520       71.37414       52.47947
C         17.82872       69.76848       50.85891
C         17.80513       72.40835       52.62700
H         18.35519       70.21192       55.25681
H         19.08730       69.72686       53.20224
H         16.23086       69.33277       52.20887
H         16.07280       71.41303       53.39587
H         16.03244       71.67820       51.63836
H         18.78039       70.33877       50.81665
H         18.05490       68.70408       50.63947
H         17.15422       70.14527       50.06122
H         18.42219       72.46627       51.70902
H         17.34028       73.40370       52.79737
H         18.44490       72.16992       53.50051
N         19.28929       67.18452       52.80256
C         19.37723       65.75520       52.50053
C         19.37572       64.84073       53.72678
O         19.43375       63.63611       53.52625
C         20.64436       65.45977       51.64496
C         21.96269       65.70165       52.39663
O         20.63395       66.25039       50.48393
H         20.08681       67.79609       52.57513
H         18.50453       65.48848       51.86347
H         20.64640       64.38316       51.35069
H         19.98391       65.83568       49.85813
H         22.02847       65.05538       53.29705
H         22.81844       65.45167       51.73441
H         22.06963       66.75947       52.71069
N         19.39069       65.31332       55.01005
C         19.62799       64.42660       56.15237
C         18.53298       63.37622       56.29449
O         17.40926       63.72653       56.62558
C         19.78013       65.24872       57.46174
C         20.16641       64.38124       58.66652
O         20.72607       66.27774       57.30336
H         19.33817       66.32814       55.17262
H         20.59968       63.91775       55.96275
H         18.80452       65.72837       57.68223
H         21.58145       65.86281       57.01812
H         19.40559       63.59474       58.85222
H         21.15075       63.89704       58.49196
H         20.23787       65.01662       59.57479
N         18.80371       62.06065       56.02887
C         17.83172       60.97400       56.11888
C         16.57950       61.32172       55.33953
O         15.52988       61.55095       55.92573
C         17.58976       60.53513       57.58197
C         16.74574       59.23938       57.62338
C         16.71924       58.58230       59.00756
C         15.87510       57.29586       58.96797
N         15.91421       56.59251       60.24904
H         19.74627       61.81428       55.69054
H         18.28704       60.07593       55.64183
H         17.11857       61.33820       58.18831
H         18.58746       60.30757       58.01910
H         17.18899       58.49688       56.92261
H         15.70797       59.45295       57.29153
H         16.29874       59.28333       59.75992
H         17.76144       58.32361       59.29823
H         16.26227       56.61515       58.17630
H         14.82154       57.55380       58.71826
H         15.55616       57.20901       61.01347
H         15.31137       55.73981       60.18799
H         16.89418       56.29438       60.46154
N         16.64332       61.37426       53.98325
C         15.52532       61.75837       53.13579
C         15.93107       62.93443       52.25167
O         15.37722       64.00082       52.47765
C         14.97042       60.54221       52.37149
C         14.31153       59.53809       53.33167
C         13.78652       58.34643       52.58595
O         12.59488       58.08281       52.60696
O         14.63246       57.55208       51.90227
H         17.53277       61.11087       53.54478
H         14.68285       62.12583       53.76601
H         15.77845       60.02174       51.82758
H         14.19774       60.88719       51.64926
H         13.47427       60.04146       53.86581
H         15.04493       59.18197       54.08587
N         16.86890       62.90234       51.25362
C         17.59392       61.74553       50.77187
H         18.21533       61.28713       51.55900
H         16.90016       61.01289       50.31967
H         18.28504       62.05722       49.96007
H         17.07579       63.78644       50.76921
Ca        14.73877       67.47119       51.55467
O         12.23322       65.26561       51.23310
H         12.79381       65.13505       50.42804
H         12.22343       66.24535       51.36940
O         12.53646       64.14125       54.35470
H         12.42230       63.55618       53.56437
H         12.62780       63.51613       55.11695
O         15.10383       65.69801       55.28004
H         15.20155       64.71318       55.30593
H         14.64490       65.92404       56.12771

Ca 1.0



