%chk=apoCaM-CA-Ng.loop3.water4.frame110.chk
%nprocshared=20
%mem=10GB
%nosave
#b3lyp/svp scf=(tight,noincore,xqc) Test 
#IOP(5/87=12) Density=Current Pop=(MK,readradii) iop(6/33=2) iop(6/42=6)

apoCaM-CA-Ng.loop3.water4.frame110 

   0  1 
C         44.67647       85.25560       93.08092
C         45.57010       86.39917       93.45745
O         45.20269       87.54176       93.22588
H         43.73742       85.62471       92.61478
H         45.19906       84.59581       92.35737
H         44.41780       84.67150       93.98898
N         46.77488       86.15508       94.05149
C         47.71356       87.19346       94.47120
C         48.28606       87.97423       93.28449
O         48.89549       89.01320       93.49576
C         47.06095       88.08862       95.55289
C         48.06079       88.97811       96.24017
O         47.92341       90.19055       96.22082
O         49.10543       88.43687       96.89688
H         47.03993       85.17432       94.23138
H         48.57698       86.68829       94.95888
H         46.62005       87.43474       96.33630
H         46.24651       88.70337       95.11617
N         48.21603       87.47657       92.01435
C         48.80113       88.12781       90.84429
C         47.74276       88.41251       89.78081
O         48.09311       88.96017       88.74439
C         49.92112       87.21842       90.29225
C         51.04659       87.04927       91.33105
C         52.07335       85.99283       90.91276
C         53.14847       85.83441       92.00021
N         54.05225       84.72715       91.69369
H         47.77871       86.55637       91.85886
H         49.25309       89.10805       91.11366
H         50.35832       87.64889       89.36423
H         49.48075       86.22721       90.04462
H         50.61314       86.71080       92.29567
H         51.54528       88.03078       91.49397
H         52.55040       86.26956       89.94732
H         51.54313       85.02356       90.78659
H         52.66144       85.63105       92.98044
H         53.72885       86.78003       92.09009
H         54.53161       84.88970       90.77924
H         54.77055       84.65415       92.45031
H         53.51382       83.83062       91.65831
N         46.42674       88.09431       89.97013
C         45.37477       88.38450       89.00550
C         45.25132       89.88059       88.79172
O         45.21873       90.63031       89.75788
C         44.03454       87.79226       89.49103
C         42.94113       87.98545       88.47685
O         41.89907       88.53491       88.78832
O         43.09379       87.54474       87.21705
H         46.13976       87.62846       90.83843
H         45.61814       87.87656       88.04479
H         43.73931       88.24338       90.46491
H         44.16626       86.69888       89.63940
N         45.13444       90.37149       87.52914
C         45.02818       91.78172       87.20601
C         43.89757       92.48064       87.92702
O         44.14277       93.53234       88.50115
H         45.10352       89.70663       86.74071
H         44.85350       91.87273       86.11238
H         45.98865       92.29361       87.43344
N         42.63481       91.96474       87.93694
C         41.49097       92.67194       88.51536
C         40.92697       92.01283       89.76879
O         39.94315       92.52755       90.28344
C         40.38698       92.86262       87.44934
C         39.69955       91.57773       87.03826
N         38.37992       91.39567       87.28050
O         40.33085       90.69829       86.47563
H         42.48585       91.04307       87.50366
H         41.79820       93.69466       88.82654
H         40.81529       93.35875       86.55165
H         39.62664       93.55559       87.87149
H         37.82127       92.12169       87.75209
H         37.91322       90.52048       86.99955
N         41.50766       90.92732       90.35905
C         40.99215       90.33158       91.58454
C         39.66659       89.61132       91.39366
O         38.72528       90.20155       90.88293
H         42.39171       90.56128       89.98368
H         40.86912       91.13387       92.34394
H         41.73915       89.61386       91.98737
N         39.49629       88.34523       91.87930
C         38.19952       87.66791       91.86279
C         37.83896       87.14187       90.49212
O         38.67046       87.12682       89.59687
C         38.19351       86.46876       92.83774
C         38.41624       86.89029       94.26534
C         39.54617       86.44455       94.96842
C         37.48463       87.71966       94.91248
C         39.74444       86.82754       96.29736
C         37.68360       88.09958       96.24162
C         38.81595       87.65447       96.93885
O         39.01992       88.01164       98.22235
H         40.28244       87.90193       92.37882
H         37.42020       88.39428       92.18379
H         38.97561       85.74634       92.51258
H         37.21762       85.93912       92.80381
H         40.27402       85.80171       94.48884
H         36.60079       88.06669       94.39140
H         40.62026       86.47841       96.82893
H         36.95588       88.73690       96.72792
H         38.39975       88.57899       98.70204
N         36.57630       86.67393       90.28377
C         36.12264       86.04905       89.05172
C         35.33138       87.07205       88.26703
O         35.66468       87.30716       87.11341
C         35.28127       84.77244       89.36914
C         35.98568       83.80316       90.35775
C         34.87744       84.02503       88.08226
C         37.32287       83.23651       89.87506
H         35.88621       86.78492       91.04287
H         36.99360       85.74099       88.43077
H         34.34458       85.09576       89.87671
H         35.30250       82.95286       90.57628
H         36.16102       84.32648       91.32036
H         35.76713       83.67061       87.52383
H         34.23859       83.15078       88.33348
H         34.30231       84.67500       87.39794
H         37.19509       82.63501       88.95279
H         38.05464       84.04933       89.69227
H         37.73762       82.56894       90.65968
N         34.31051       87.77339       88.84620
C         33.58383       88.81222       88.12620
C         32.63835       88.23251       87.08826
O         32.12473       89.00503       86.29211
C         32.81143       89.72388       89.08957
O         33.70033       90.35527       89.97475
H         34.09385       87.61080       89.84085
H         34.33160       89.45502       87.60703
H         32.03236       89.14607       89.63912
H         32.28500       90.51821       88.51763
H         33.65431       89.86898       90.83826
N         32.38124       86.88830       87.01128
C         31.56087       86.26671       85.97468
C         32.16232       86.44283       84.58185
O         31.51485       86.04971       83.61838
C         30.11315       86.77793       86.05155
H         32.78415       86.25603       87.71254
H         31.51244       85.17176       86.16965
H         29.47547       86.22871       85.32622
H         29.70601       86.59422       87.06918
H         30.03321       87.85909       85.82505
N         33.39939       86.99386       84.39210
C         33.99897       87.23836       83.09030
C         35.29046       86.46113       82.93316
O         35.71617       85.79785       83.87226
C         34.27689       88.74038       82.96716
H         33.97022       87.26643       85.20215
H         33.30828       86.92934       82.27574
H         34.98361       89.06433       83.76392
H         34.71690       88.99121       81.98078
H         33.33089       89.30970       83.08613
N         35.96260       86.48728       81.74374
C         37.23021       85.80638       81.48971
C         37.14313       84.28649       81.62983
O         38.17804       83.64071       81.52519
C         38.34803       86.36595       82.39512
C         38.57422       87.87727       82.22113
C         39.72403       88.28429       83.09331
O         39.64986       88.04106       84.41337
O         40.74305       88.75210       82.61054
H         35.56273       87.03470       80.96571
H         37.54091       86.01179       80.44117
H         39.30034       85.85212       82.13426
H         38.12705       86.14292       83.46056
H         37.66662       88.44372       82.52120
H         38.80450       88.10662       81.15719
N         35.96556       83.63091       81.84087
C         35.91340       82.19547       82.01334
H         34.86060       81.86759       82.14554
H         36.33856       81.68583       81.12307
H         36.49013       81.90622       82.91813
H         35.07353       84.14137       81.87362
Ca        41.42581       88.03859       85.79146
O         44.43240       87.65091       84.57015
H         45.05141       87.29030       85.25375
H         44.96645       88.32926       84.08614
O         41.78127       85.38451       84.40229
H         42.26782       85.55081       83.55621
H         40.85065       85.19668       84.12159
O         42.76650       90.59746       84.56198
H         42.57984       91.56475       84.66092
H         43.69995       90.55660       84.23526
O         39.43943       86.13779       86.94354
H         39.10966       87.07039       86.99406
H         39.02212       85.77398       86.12329

Ca 1.0



