%chk=apoCaM-CA-Ng.loop2.water4.frame687.chk
%nprocshared=20
%mem=10GB
%nosave
#b3lyp/svp scf=(tight,noincore,xqc) Test 
#IOP(5/87=12) Density=Current Pop=(MK,readradii) iop(6/33=2) iop(6/42=6)

apoCaM-CA-Ng.loop2.water4.frame687 

   -2  1 
C         83.40343       69.12378       70.15275
C         82.83198       70.03370       69.10306
O         83.56127       70.41005       68.19695
H         84.27364       69.62110       70.63225
H         82.65774       68.89092       70.94168
H         83.74163       68.17405       69.68863
N         81.52840       70.43090       69.16104
C         80.92918       71.36639       68.21694
C         79.83783       70.68868       67.41253
O         78.94758       70.07764       67.98784
C         80.35564       72.57483       68.97626
C         79.78796       73.59603       68.02507
O         78.48221       73.91959       68.08070
O         80.50568       74.12741       67.19204
H         80.93229       70.06669       69.92095
H         81.69967       71.75858       67.51709
H         81.16115       73.05756       69.57027
H         79.56114       72.23496       69.67656
N         79.81961       70.82659       66.05643
C         78.78727       70.24376       65.20343
C         78.95673       68.73525       65.14163
O         79.99239       68.25734       65.58738
C         78.93850       70.83812       63.79315
H         80.55068       71.41027       65.62043
H         77.79391       70.52596       65.61124
H         78.17258       70.48862       63.08452
H         78.85458       71.94401       63.84716
H         79.93568       70.57979       63.37422
N         78.05500       67.87958       64.57912
C         76.70588       68.18084       64.07904
C         75.73392       68.57931       65.20072
O         76.13543       68.66867       66.35192
C         76.17277       66.93110       63.33163
C         76.04840       65.71660       64.20816
O         76.42342       65.74706       65.50373
O         75.60179       64.68246       63.73851
H         78.37477       66.89967       64.51651
H         76.73421       68.98362       63.32454
H         76.85799       66.68938       62.49038
H         75.18122       67.14002       62.88172
N         74.40680       68.76716       64.92714
C         73.39251       69.03513       65.93839
C         73.45530       70.44434       66.47551
O         74.31541       71.20481       66.05444
H         74.07006       68.64858       63.96171
H         73.46149       68.28897       66.75680
H         72.39677       68.92517       65.45694
N         72.54712       70.91385       67.38159
C         71.48042       70.11516       67.99467
C         72.04147       69.34726       69.19196
O         73.16902       69.62348       69.57971
C         70.33544       71.08943       68.38664
C         69.09317       70.45851       68.96116
N         68.61110       70.85826       70.16299
O         68.49142       69.61127       68.31874
H         72.62575       71.90775       67.65241
H         71.07249       69.40352       67.24641
H         70.02183       71.62828       67.46535
H         70.73014       71.84873       69.09768
H         69.08576       71.59355       70.70790
H         67.74460       70.44967       70.54335
N         71.31995       68.37794       69.83706
C         71.79148       67.73580       71.06187
C         71.94936       66.22418       71.01286
O         72.32812       65.68433       72.04365
H         70.38371       68.12571       69.48943
H         71.06601       67.97447       71.86909
H         72.77326       68.14848       71.37651
N         71.68475       65.45658       69.91216
C         71.83261       63.99111       69.94708
C         73.28658       63.56221       70.15942
O         74.17918       64.39596       70.12328
C         71.25425       63.32177       68.67418
C         69.73343       63.49788       68.58506
O         71.87281       63.85358       67.53407
H         71.33839       65.91352       69.05601
H         71.25203       63.60938       70.81713
H         71.45132       62.22642       68.72717
H         71.67121       63.23974       66.78014
H         69.44872       64.56832       68.53207
H         69.34803       62.98217       67.67967
H         69.24892       63.03745       69.47311
N         73.57699       62.25351       70.43649
C         74.92081       61.75077       70.72591
C         75.26594       60.67604       69.71519
O         74.55624       59.68402       69.62522
C         74.98705       61.24176       72.20173
C         76.37766       60.68801       72.62771
C         74.63772       62.40947       73.14670
C         76.70916       59.28404       72.11363
H         72.79871       61.57904       70.49187
H         75.66702       62.57093       70.63819
H         74.22529       60.44799       72.36902
H         76.38657       60.57994       73.73455
H         77.17853       61.40725       72.35181
H         73.61887       62.79943       72.94349
H         74.64794       62.06917       74.20430
H         75.36934       63.23894       73.03385
H         77.67569       58.96148       72.55119
H         75.92713       58.56545       72.43689
H         76.81575       59.22462       71.02060
N         76.35800       60.82519       68.91204
C         76.74803       59.88930       67.86474
C         78.14810       59.31491       68.05262
O         78.54148       58.52846       67.20098
C         76.59450       60.61942       66.52257
C         75.12736       60.88037       66.30771
O         74.62453       62.12001       66.38084
O         74.36369       59.94424       66.13634
H         76.91391       61.68261       68.99787
H         76.07672       59.00224       67.85113
H         76.96877       60.01665       65.66789
H         77.18048       61.56513       66.55625
N         78.92267       59.56744       69.15356
C         80.17515       58.85638       69.41589
C         81.31418       59.84598       69.67209
O         81.91793       59.77833       70.73465
C         79.93052       57.95499       70.65723
C         81.01038       56.96050       71.04198
C         80.89892       56.33152       72.29565
C         82.09897       56.62461       70.21040
C         81.85154       55.39942       72.71481
C         83.04122       55.67813       70.62911
C         82.91987       55.06932       71.88025
H         78.58202       60.20885       69.88320
H         80.43475       58.20946       68.55291
H         78.99562       57.36956       70.51664
H         79.76382       58.63925       71.51845
H         80.07517       56.57332       72.95683
H         82.22559       57.06887       69.23460
H         81.75880       54.93110       73.68650
H         83.86702       55.41419       69.98123
H         83.65246       54.34064       72.20287
N         81.68532       60.80884       68.77435
C         82.75183       61.77620       69.02032
C         82.57884       62.66041       70.25954
O         83.50423       63.39252       70.57904
C         82.72226       62.66326       67.77103
C         82.26045       61.69421       66.70536
C         81.15840       60.92609       67.43292
H         83.69786       61.19449       69.10015
H         81.90505       63.41333       67.87816
H         83.67070       63.20238       67.56223
H         81.94609       62.15445       65.74490
H         83.10601       60.99520       66.50944
H         80.20288       61.48940       67.47485
H         81.02051       59.94738       66.92605
N         81.41836       62.68172       70.97862
C         81.22987       63.47851       72.18570
C         82.06486       62.88913       73.30812
O         82.69500       63.64124       74.03871
C         79.74471       63.55913       72.64154
C         78.83777       64.51699       71.82398
C         78.37097       64.06565       70.46895
O         77.64001       64.79373       69.81801
O         78.68445       62.86201       69.97847
H         80.64883       62.08349       70.68014
H         81.54490       64.53210       72.01223
H         79.76858       64.03126       73.65024
H         79.28643       62.55535       72.76329
H         79.35235       65.49728       71.71952
H         77.91138       64.68542       72.41541
N         82.12837       61.54101       73.49194
C         82.91944       60.93236       74.53768
H         83.97811       61.26126       74.46155
H         82.50861       61.21266       75.52933
H         82.88864       59.82574       74.43634
H         81.61879       60.91777       72.85259
Ca        75.88467       63.93281       66.65386
O         78.16309       66.88234       67.87640
H         77.74916       67.65694       68.33245
H         79.13567       67.00584       68.01274
O         79.24868       64.00329       66.70395
H         78.80551       63.48863       67.42347
H         79.86434       64.61401       67.18115
O         73.50047       65.66673       66.13312
H         73.57526       64.75712       65.75109
H         73.10161       66.19844       65.40146
O         75.07866       66.93358       69.01957
H         74.91388       67.83446       68.64704
H         74.80929       67.00884       69.96911

Ca 1.0



