%chk=apoCaM-CA-Ng.loop3.water5.frame45.chk
%nprocshared=20
%mem=10GB
%nosave
#b3lyp/svp scf=(tight,noincore,xqc) Test 
#IOP(5/87=12) Density=Current Pop=(MK,readradii) iop(6/33=2) iop(6/42=6)

apoCaM-CA-Ng.loop3.water5.frame45 

   0  1 
C         31.13044       63.91298       45.81467
C         30.44528       64.88594       44.90431
O         30.16714       64.53686       43.76773
H         32.11194       64.32454       46.12926
H         30.50051       63.73518       46.71107
H         31.29726       62.94289       45.29839
N         30.14447       66.14194       45.34753
C         29.45639       67.15934       44.55398
C         30.27751       67.61245       43.34220
O         29.75831       68.36386       42.52906
C         28.04058       66.65807       44.16853
C         27.09657       67.73540       43.68555
O         27.45707       69.03410       43.65709
O         25.96320       67.42858       43.35390
H         30.39942       66.38932       46.31628
H         29.31312       68.04901       45.20759
H         27.56484       66.21662       45.07134
H         28.11791       65.87109       43.39078
N         31.58756       67.25867       43.17807
C         32.38098       67.74545       42.05333
C         32.04563       67.02507       40.75267
O         32.56636       67.43811       39.72566
C         33.89295       67.65324       42.36351
C         34.25316       68.53637       43.57348
C         35.75804       68.55648       43.85694
C         36.05909       69.47754       45.05001
N         37.49388       69.54450       45.32031
H         32.05928       66.70075       43.90297
H         32.15923       68.82724       41.90771
H         34.46369       68.02595       41.48421
H         34.18683       66.59676       42.55118
H         33.72295       68.17547       44.48047
H         33.92321       69.57796       43.36390
H         36.29481       68.93389       42.95915
H         36.11212       67.52664       44.08147
H         35.53172       69.09929       45.95440
H         35.68420       70.50279       44.83140
H         37.65690       70.17914       46.13549
H         37.86208       68.59352       45.55117
H         37.99756       69.92890       44.48817
N         31.20185       65.94850       40.70700
C         30.85611       65.25174       39.47145
C         29.34815       65.27994       39.25397
O         28.60873       65.63728       40.16207
C         31.39856       63.80908       39.56590
C         31.19905       62.99652       38.32035
O         30.49344       61.85134       38.37180
O         31.69704       63.35363       37.26458
H         30.79419       65.58426       41.57723
H         31.33201       65.76061       38.60536
H         30.91335       63.29221       40.42372
H         32.49149       63.85132       39.76447
N         28.82318       64.95403       38.03766
C         27.39786       64.96978       37.75715
C         26.64535       63.80236       38.36133
O         25.43728       63.75661       38.17703
H         29.45906       64.74713       37.25462
H         27.24799       64.89971       36.65821
H         26.96407       65.93626       38.09603
N         27.27140       62.80852       39.05924
C         26.57101       61.65294       39.60514
C         26.63462       61.62035       41.12096
O         26.01024       60.73350       41.68776
C         27.16630       60.35707       39.01672
C         27.01473       60.28869       37.51730
N         25.78727       60.24919       36.94720
O         28.01080       60.25222       36.81086
H         28.28807       62.84746       39.20419
H         25.48979       61.69316       39.35065
H         26.66194       59.46599       39.45016
H         28.24274       60.30744       39.28969
H         24.93489       60.26160       37.52581
H         25.68718       60.19396       35.92273
N         27.31788       62.55051       41.85886
C         27.27734       62.55404       43.30991
C         27.86005       61.28431       43.87296
O         29.06195       61.07789       43.78375
H         27.84380       63.30597       41.39970
H         26.21509       62.66617       43.61652
H         27.82771       63.42282       43.72306
N         27.02419       60.36372       44.43072
C         27.41167       59.07081       44.98153
C         28.07531       58.18550       43.92811
O         28.33821       58.65962       42.83045
C         28.26543       59.28201       46.25647
C         28.12251       58.17058       47.27021
C         26.85661       57.90835       47.82815
C         29.22803       57.42686       47.71053
C         26.69633       56.91860       48.79753
C         29.06469       56.43110       48.68312
C         27.79669       56.17607       49.22989
O         27.62346       55.22984       50.17461
H         26.01522       60.57928       44.45100
H         26.45544       58.58299       45.26883
H         27.89169       60.18590       46.78649
H         29.32277       59.48376       45.97645
H         25.99012       58.48201       47.52312
H         30.21439       57.62188       47.31132
H         25.71503       56.73648       49.21844
H         29.92383       55.86414       49.01777
H         28.35688       54.69806       50.51371
N         28.32149       56.86595       44.16184
C         28.88736       55.99268       43.13499
C         27.73806       55.32470       42.40576
O         27.57832       55.54464       41.21311
C         29.90230       54.98482       43.75017
C         30.98609       55.67919       44.61722
C         30.54720       54.10925       42.66013
C         31.83980       56.72327       43.89276
H         28.00248       56.44984       45.04993
H         29.43836       56.59857       42.38102
H         29.35506       54.30286       44.43758
H         31.65924       54.90364       45.04401
H         30.49074       56.18095       45.47136
H         31.10472       54.72553       41.92470
H         31.24770       53.37949       43.11993
H         29.77232       53.53314       42.11283
H         32.40408       56.26946       43.05377
H         31.21218       57.55576       43.51394
H         32.57198       57.15266       44.60915
N         26.86140       54.53839       43.08430
C         25.65910       53.97070       42.48579
C         25.96932       53.03080       41.33810
O         25.39358       53.19493       40.27111
C         24.84490       53.21628       43.55022
O         24.48326       54.09673       44.57918
H         27.03203       54.37937       44.08903
H         25.01339       54.79754       42.11098
H         25.45239       52.38003       43.96466
H         23.92191       52.80918       43.07864
H         24.01128       53.54918       45.25880
N         26.84471       51.99943       41.49992
C         27.05549       50.93999       40.52205
C         27.46004       51.45451       39.14432
O         26.78122       51.14602       38.17453
C         25.79760       50.05483       40.45875
H         27.35848       51.92600       42.39168
H         27.87688       50.28698       40.89127
H         25.96800       49.18999       39.78241
H         25.56306       49.66093       41.47071
H         24.91928       50.62639       40.09116
N         28.59561       52.19311       38.97280
C         29.07429       52.57923       37.64132
C         30.45894       53.20087       37.67745
O         30.85435       53.77167       38.68377
C         28.11679       53.54289       36.92491
H         29.16109       52.41006       39.80641
H         29.15894       51.64304       37.04496
H         28.02040       54.48884       37.49813
H         28.50517       53.77686       35.90969
H         27.10852       53.10431       36.79296
N         31.26902       53.07665       36.58174
C         32.63208       53.59272       36.48196
C         33.59343       52.96935       37.49255
O         34.74301       53.38830       37.51827
C         32.66186       55.13673       36.54601
C         31.81507       55.76811       35.43031
C         32.02264       57.25320       35.38550
O         31.74167       58.00699       36.46221
O         32.45858       57.78304       34.37547
H         30.90239       52.57640       35.75781
H         33.03255       53.32183       35.47876
H         33.71536       55.46440       36.39834
H         32.32388       55.50899       37.53688
H         30.73877       55.55014       35.60012
H         32.11166       55.33773       34.44810
N         33.22759       51.94655       38.32201
C         34.12391       51.34364       39.28761
H         35.12537       51.82214       39.29866
H         33.68239       51.43668       40.30186
H         34.25077       50.26732       39.04792
H         32.28325       51.54384       38.27399
Ca        31.03306       60.71987       35.72404
O         33.92721       61.25218       34.87857
H         34.15720       61.66360       35.74918
H         33.29031       61.88827       34.46573
O         30.11176       58.51239       38.73183
H         30.33175       57.54887       38.79067
H         30.61302       58.92940       39.47669
O         33.29608       60.23654       38.29406
H         33.80018       61.08784       38.25542
H         32.93111       60.20755       39.21395
O         28.95830       62.43168       34.34056
H         29.56422       61.99798       33.68805
H         29.02997       63.39844       34.14017
O         29.29675       58.78571       34.17290
H         29.80531       58.81873       33.32388
H         28.39241       58.48009       33.91158

Ca 1.0



