%chk=apoCaM-CA-Ng.loop2.water4.frame274.chk
%nprocshared=20
%mem=10GB
%nosave
#b3lyp/svp scf=(tight,noincore,xqc) Test 
#IOP(5/87=12) Density=Current Pop=(MK,readradii) iop(6/33=2) iop(6/42=6)

apoCaM-CA-Ng.loop2.water4.frame274 

   -2  1 
C         31.00027       56.20857       38.35646
C         31.53529       56.70004       39.66988
O         31.15785       56.16739       40.70248
H         30.46976       57.03416       37.83919
H         31.83688       55.85286       37.71891
H         30.28779       55.36867       38.50758
N         32.44908       57.71061       39.70278
C         33.00863       58.23366       40.94688
C         31.93051       58.97242       41.72387
O         31.40851       59.95561       41.21509
C         34.19092       59.17442       40.63444
C         34.91502       59.67303       41.85890
O         34.53695       59.30367       43.09887
O         35.87331       60.41602       41.72455
H         32.77651       58.09508       38.80234
H         33.41099       57.37617       41.53178
H         33.82774       60.04500       40.04491
H         34.92678       58.61869       40.01300
N         31.52204       58.53210       42.95094
C         30.40946       59.13893       43.68429
C         29.17965       59.13197       42.80656
O         28.54391       60.16540       42.65898
C         30.13765       58.38259       44.98593
H         31.97848       57.69607       43.34718
H         30.66196       60.18918       43.95428
H         29.87712       57.32224       44.78409
H         31.03904       58.41844       45.63394
H         29.29723       58.86309       45.53260
N         28.89705       58.01847       42.07174
C         27.93851       57.96487       40.97976
C         26.52687       57.99461       41.51936
O         25.72965       58.82867       41.11313
C         28.30100       59.06795       39.93966
C         27.68079       58.93832       38.58767
O         28.02605       59.69718       37.69611
O         26.83932       57.93994       38.30681
H         29.47793       57.18030       42.21552
H         28.06941       56.97412       40.48674
H         29.39521       58.99420       39.75819
H         28.07788       60.08103       40.32758
N         26.16480       57.08384       42.47203
C         24.84096       57.01867       43.06158
C         24.25895       55.63357       42.92553
O         23.89871       55.03989       43.93251
H         26.87132       56.41602       42.81819
H         24.14866       57.74281       42.58192
H         24.91292       57.28187       44.13933
N         24.10731       55.06612       41.69741
C         23.43370       53.78791       41.49016
C         24.13960       52.63897       42.20330
O         25.29210       52.35248       41.91138
C         23.32216       53.49360       39.98073
C         22.48945       52.26779       39.68738
N         21.17975       52.22742       40.02399
O         22.99464       51.30924       39.12506
H         24.43394       55.59824       40.87552
H         22.40178       53.89604       41.88879
H         24.34629       53.38115       39.57135
H         22.84662       54.35531       39.46532
H         20.72653       53.03102       40.48177
H         20.61250       51.39297       39.81402
N         23.47101       51.92776       43.15231
C         24.01121       50.77795       43.85627
C         24.18897       49.58254       42.94548
O         23.25813       49.23731       42.23162
H         22.51220       52.21482       43.40057
H         23.26498       50.47092       44.62080
H         24.94647       51.04473       44.39574
N         25.32674       48.83524       43.00144
C         25.49246       47.58953       42.25256
C         25.63547       47.83230       40.75717
O         25.03449       47.09709       39.98554
C         26.63603       46.69621       42.81946
C         28.04864       47.29333       42.77763
O         26.32774       46.28470       44.12975
H         26.05647       49.11948       43.67057
H         24.58581       46.96025       42.40667
H         26.66248       45.77244       42.19882
H         26.37794       47.07731       44.72418
H         28.34222       47.54037       41.74463
H         28.12688       48.20457       43.40287
H         28.77129       46.54326       43.16648
N         26.42385       48.83510       40.27862
C         26.64845       49.09247       38.85160
C         26.14057       50.46668       38.46266
O         25.73281       51.21691       39.33712
C         28.15674       48.91143       38.49891
C         29.07184       49.78210       39.41008
C         28.51232       47.41624       38.56356
C         30.55937       49.69137       39.07996
H         26.87596       49.45449       40.96684
H         26.05575       48.38345       38.23185
H         28.31502       49.22229       37.44336
H         28.97034       49.48633       40.47319
H         28.76679       50.84673       39.31346
H         27.85364       46.84552       37.87422
H         29.55350       47.23441       38.23300
H         28.37857       47.00893       39.58259
H         31.12244       50.36708       39.75911
H         30.94266       48.66428       39.24795
H         30.74480       49.99803       38.03077
N         26.10922       50.85235       37.14946
C         25.57248       52.13608       36.71065
C         24.41159       51.93407       35.73131
O         24.24694       52.72018       34.81048
C         26.71936       52.96408       36.09356
C         26.35959       54.40759       35.89428
O         25.28257       54.84503       36.26962
O         27.26102       55.26154       35.38795
H         26.46409       50.20731       36.42613
H         25.18397       52.69335       37.58449
H         27.04846       52.50639       35.14070
H         27.58563       52.95494       36.78969
N         23.58719       50.85690       35.85167
C         22.51731       50.53431       34.90537
C         23.09291       50.39663       33.48938
O         24.09099       49.70031       33.35465
C         21.88794       49.18471       35.32928
C         20.75834       48.74939       34.43001
C         19.52063       49.41427       34.45656
C         20.93722       47.66534       33.55463
C         18.48361       49.00481       33.61174
C         19.90165       47.26407       32.70778
C         18.67557       47.93279       32.73572
H         23.75638       50.20794       36.63495
H         21.74303       51.32722       34.95275
H         21.51227       49.23295       36.37533
H         22.69725       48.42113       35.30994
H         19.35982       50.24740       35.12989
H         21.88338       47.13997       33.51683
H         17.53170       49.51932       33.63420
H         20.05203       46.43508       32.02877
H         17.87483       47.61905       32.07901
N         22.53057       50.97735       32.37504
C         23.03659       50.74673       31.02388
C         24.37196       51.40211       30.73237
O         24.98474       51.07321       29.72674
C         21.96768       51.36325       30.11389
C         20.71683       51.21438       30.95777
C         21.24489       51.64026       32.32412
H         23.08488       49.64304       30.88221
H         22.14486       52.46157       30.02253
H         21.92806       50.93170       29.09117
H         19.84534       51.80041       30.59735
H         20.44257       50.13488       30.99657
H         21.41141       52.74049       32.33692
H         20.53655       51.36194       33.11958
N         24.83750       52.40793       31.52294
C         26.08810       53.11207       31.27561
C         27.24611       52.14698       31.40771
O         28.06653       52.07251       30.50338
C         26.25961       54.29213       32.25692
C         25.16784       55.36656       32.07836
C         25.37493       56.52391       33.01314
O         26.39347       57.19388       32.94862
O         24.42568       56.84205       33.91444
H         24.26608       52.70077       32.32450
H         26.08487       53.54877       30.25115
H         27.24878       54.76692       32.07134
H         26.24212       53.91086       33.29395
H         24.16427       54.93423       32.27294
H         25.18448       55.74903       31.03519
N         27.35285       51.34432       32.50154
C         28.43418       50.39878       32.66305
H         29.40202       50.93940       32.72261
H         28.29011       49.81682       33.59833
H         28.45351       49.69246       31.80560
H         26.62546       51.38247       33.23013
Ca        26.80615       57.28920       36.17409
O         24.62193       59.63703       35.90057
H         23.63598       59.59972       35.81889
H         24.80581       60.52608       36.29587
O         29.71506       57.69258       35.27648
H         30.05170       57.19492       34.48973
H         30.03118       58.62066       35.13941
O         23.95372       57.10081       37.89163
H         24.15347       57.92758       38.39846
H         24.47772       56.39683       38.35025
O         27.46403       60.08316       34.56463
H         28.33105       60.39924       34.20624
H         26.86304       60.86586       34.48471

Ca 1.0



