%chk=apoCaM-CA-Ng.loop2.water2.frame826.chk
%nprocshared=20
%mem=10GB
%nosave
#b3lyp/svp scf=(tight,noincore,xqc) Test 
#IOP(5/87=12) Density=Current Pop=(MK,readradii) iop(6/33=2) iop(6/42=6)

apoCaM-CA-Ng.loop2.water2.frame826 

   -2  1 
C         61.09073       79.68861       85.86754
C         61.40020       78.27609       85.47572
O         61.44356       77.42658       86.35453
H         60.09418       79.72167       86.35691
H         61.85805       80.05091       86.58311
H         61.07561       80.36102       84.98520
N         61.61424       77.94357       84.16917
C         61.88368       76.58027       83.73664
C         60.74662       76.10550       82.85038
O         60.97954       75.65488       81.73664
C         63.27127       76.52056       83.06032
C         63.66757       75.11917       82.67821
O         63.90627       74.84384       81.51299
O         63.77173       74.16391       83.62191
H         61.56475       78.67966       83.44790
H         61.90651       75.89558       84.61267
H         64.03518       76.90466       83.76993
H         63.27374       77.17692       82.16156
N         59.46588       76.16658       83.31619
C         58.32634       75.59860       82.60691
C         57.33307       76.67582       82.17880
O         57.51359       77.82209       82.56623
C         57.66865       74.59161       83.56217
H         59.29376       76.59849       84.23797
H         58.68284       75.07986       81.69333
H         56.82453       74.04877       83.11149
H         58.41495       73.83491       83.88200
H         57.29397       75.11935       84.46739
N         56.25319       76.42526       81.37145
C         55.95089       75.14244       80.73436
C         55.92372       75.27539       79.21911
O         55.97851       76.38217       78.70174
C         54.64187       74.53038       81.29056
C         53.41381       75.37975       81.11104
O         53.31685       76.58080       81.71194
O         52.46425       74.94975       80.47972
H         55.62730       77.21805       81.16191
H         56.75455       74.41467       80.94004
H         54.74895       74.35167       82.37891
H         54.47982       73.54166       80.80757
N         55.92315       74.15197       78.44544
C         55.97929       74.16580       76.99200
C         55.08506       73.08863       76.41891
O         55.62607       72.14295       75.86303
H         55.98695       73.23522       78.91493
H         57.02371       73.90927       76.70748
H         55.76351       75.16237       76.55774
N         53.72633       73.08378       76.52653
C         52.91310       74.15296       77.09425
C         52.84936       75.31097       76.10274
O         52.31456       75.13084       75.01686
C         51.51008       73.56694       77.38418
C         50.49661       74.47209       78.02149
N         49.26098       73.98076       78.27192
O         50.76740       75.62616       78.31176
H         53.24186       72.24059       76.17625
H         53.35003       74.46699       78.06413
H         51.63864       72.69825       78.06810
H         51.07190       73.19573       76.43250
H         49.02797       73.00514       78.03844
H         48.52643       74.56065       78.68847
N         53.43061       76.51196       76.38555
C         53.51987       77.60224       75.42216
C         52.28373       78.47776       75.34176
O         52.28722       79.39673       74.53692
H         53.94122       76.61242       77.27087
H         53.77882       77.19226       74.42087
H         54.35318       78.27267       75.72299
N         51.20891       78.28494       76.15511
C         50.00998       79.12190       76.14192
C         49.80891       79.77479       77.50315
O         50.62027       79.58720       78.39419
C         48.78805       78.25056       75.74209
C         48.88982       77.81816       74.27871
O         48.69082       77.10741       76.55276
H         51.22987       77.51313       76.83036
H         50.09591       79.95347       75.40891
H         47.84154       78.83055       75.80676
H         48.40780       77.41267       77.45298
H         49.80223       77.21172       74.10209
H         47.99881       77.21661       74.00050
H         48.91943       78.71575       73.62263
N         48.70912       80.55127       77.72545
C         48.37624       81.14718       79.01279
C         47.16343       80.40296       79.53061
O         46.13830       80.40120       78.86650
C         48.09905       82.67026       78.83626
C         47.55089       83.36629       80.11263
C         49.35080       83.39288       78.30874
C         48.49549       83.36526       81.31347
H         48.03320       80.68441       76.96081
H         49.20832       81.01563       79.73762
H         47.30384       82.78330       78.06562
H         46.59930       82.87972       80.41812
H         47.30956       84.42344       79.86538
H         49.13289       84.47030       78.14897
H         50.19906       83.29692       79.01790
H         49.66832       82.96327       77.33585
H         48.00571       83.88977       82.16004
H         48.71916       82.32846       81.62351
H         49.43911       83.90157       81.08852
N         47.23124       79.72319       80.71124
C         46.12839       78.92380       81.23411
C         45.55315       79.52130       82.50590
O         44.51957       79.01971       82.94241
C         46.62203       77.49042       81.50456
C         47.06144       76.76919       80.25906
O         46.23631       76.46087       79.41523
O         48.34842       76.41537       80.07374
H         48.10160       79.76002       81.25843
H         45.29199       78.89465       80.50222
H         45.81058       76.88324       81.96456
H         47.46274       77.53553       82.23064
N         46.12973       80.56517       83.17039
C         45.52337       81.17420       84.34863
C         46.51994       82.06783       85.08063
O         47.08751       82.94985       84.44178
C         44.24837       81.96113       83.93752
C         43.53170       82.58015       85.11974
C         44.05170       83.71904       85.76393
C         42.32900       82.02354       85.59027
C         43.39353       84.27583       86.86248
C         41.67609       82.58155       86.69423
C         42.20917       83.70498       87.33095
H         47.03757       80.93295       82.84646
H         45.21430       80.35142       85.02320
H         43.55720       81.25009       83.43929
H         44.48046       82.75225       83.19104
H         44.96280       84.18553       85.41636
H         41.90333       81.14909       85.11425
H         43.80425       85.15019       87.35070
H         40.75725       82.14093       87.05827
H         41.70351       84.13538       88.18537
N         46.75332       81.96106       86.42951
C         47.59211       82.87720       87.19680
C         49.07546       82.90227       86.85777
O         49.78651       83.68830       87.46650
C         47.43856       82.38619       88.64198
C         46.02844       81.85195       88.64219
C         45.99602       81.09490       87.32219
H         47.15833       83.89518       87.07240
H         48.10309       81.50459       88.80699
H         47.66363       83.14969       89.41585
H         45.74945       81.24143       89.52681
H         45.33652       82.72256       88.57103
H         46.51667       80.11495       87.39557
H         44.92809       80.96838       87.05105
N         49.62954       82.04739       85.95320
C         51.07293       81.99319       85.70266
C         51.63957       83.27220       85.10250
O         52.85637       83.38105       85.02365
C         51.39155       80.78786       84.79906
C         50.83947       80.98504       83.37877
C         50.65590       79.67573       82.70101
O         51.25831       79.38592       81.54055
O         49.85401       78.88105       83.16534
H         49.01987       81.35802       85.49348
H         51.56331       81.81595       86.68547
H         50.91777       79.90550       85.28497
H         52.48318       80.58477       84.73474
H         51.49425       81.67251       82.79930
H         49.82704       81.43359       83.41109
N         50.83795       84.26863       84.63050
C         51.38107       85.48229       84.06364
H         52.02774       85.24032       83.19350
H         50.55574       86.14204       83.72174
H         51.97521       86.02217       84.83126
H         49.81311       84.17026       84.65016
Ca        50.02138       77.82100       80.54004
O         50.58583       76.02560       83.25137
H         49.70863       76.16664       83.68871
H         51.05519       75.38023       83.83705
O         53.18573       78.53302       79.07440
H         53.61113       79.25569       79.59965
H         53.65735       77.71173       79.35761

Ca 1.0



