%chk=apoCaM-CA-Ng.loop3.water3.frame832.chk
%nprocshared=20
%mem=10GB
%nosave
#b3lyp/svp scf=(tight,noincore,xqc) Test 
#IOP(5/87=12) Density=Current Pop=(MK,readradii) iop(6/33=2) iop(6/42=6)

apoCaM-CA-Ng.loop3.water3.frame832 

   0  1 
C         65.65845       85.86032       66.29209
C         66.40057       86.69552       65.28989
O         67.25610       86.17781       64.58756
H         64.58436       85.82640       66.00412
H         66.04621       84.82028       66.31207
H         65.74432       86.30570       67.30419
N         66.07679       88.00836       65.14270
C         66.61113       88.85475       64.07455
C         68.12469       89.07295       64.21585
O         68.68067       88.76486       65.26111
C         65.80501       90.18547       64.06209
C         65.64928       90.85248       62.71877
O         64.53096       90.99469       62.25137
O         66.69572       91.33148       62.03520
H         65.34512       88.38194       65.76800
H         66.40167       88.32405       63.12966
H         66.20577       90.87975       64.82983
H         64.75786       89.95296       64.35883
N         68.84855       89.60608       63.19017
C         70.27450       89.92937       63.24246
C         70.45297       91.44313       63.15005
O         71.15765       91.99454       63.98398
C         71.03268       89.15324       62.14049
C         72.55475       89.40292       62.17090
C         73.30410       88.46107       61.21212
C         74.82108       88.71413       61.24948
N         75.53919       87.75471       60.40851
H         68.36184       89.78733       62.30767
H         70.71634       89.60201       64.21095
H         70.64200       89.41039       61.13581
H         70.85133       88.06988       62.31895
H         72.93567       89.21841       63.19914
H         72.76160       90.46109       61.89864
H         72.93494       88.59956       60.17250
H         73.10912       87.41081       61.52228
H         75.19101       88.61953       62.29467
H         75.03386       89.74757       60.89562
H         75.21937       87.82809       59.41572
H         76.56398       87.96031       60.45054
H         75.38050       86.78189       60.75938
N         69.76842       92.19048       62.23162
C         69.79307       93.65223       62.19415
C         68.57943       94.26575       62.90575
O         68.43550       95.48022       62.87605
C         69.97002       94.14813       60.73990
C         68.83282       93.80202       59.81489
O         67.59951       94.28570       60.03975
O         69.03609       93.12700       58.81941
H         69.11764       91.71724       61.59552
H         70.67808       94.03163       62.75136
H         70.91230       93.71453       60.33788
H         70.08244       95.25345       60.74103
N         67.73312       93.50226       63.66086
C         66.67490       94.04187       64.50282
C         65.41139       94.50113       63.79700
O         64.51361       94.92323       64.51272
H         67.92580       92.49901       63.76923
H         67.08776       94.86977       65.12077
H         66.35611       93.24446       65.20713
N         65.24325       94.47056       62.43999
C         64.02950       94.95987       61.78376
C         63.45175       93.89048       60.80872
O         64.21051       93.86467       59.62964
C         64.37476       96.28489       61.06243
C         63.19566       96.94904       60.39666
N         62.17157       97.44572       61.12884
O         63.17756       97.05966       59.17989
H         66.01317       94.14034       61.84918
H         63.25255       95.17846       62.54984
H         65.15931       96.07693       60.30299
H         64.80575       97.00395       61.79233
H         62.17955       97.38759       62.15728
H         61.37758       97.91223       60.66492
N         62.03954       94.19416       60.52074
C         61.47270       93.66192       59.26866
C         61.40744       92.15272       59.22020
O         60.85312       91.55404       60.13167
H         61.45653       93.89165       61.33607
H         62.01790       94.07423       58.39317
H         60.42901       94.03600       59.19526
N         61.89960       91.47001       58.14242
C         61.81607       90.01318       58.02723
C         62.67595       89.33892       59.08436
O         63.31595       90.03541       59.85640
C         62.24563       89.53881       56.61407
C         61.39344       90.11158       55.50135
C         59.99901       89.92091       55.48938
C         61.99211       90.82072       54.44547
C         59.22105       90.44051       54.44997
C         61.21265       91.33044       53.40172
C         59.82644       91.14607       53.40094
O         59.08932       91.64682       52.38871
H         62.31041       92.00908       57.36442
H         60.76160       89.70172       58.18780
H         62.14836       88.43549       56.54750
H         63.31732       89.78991       56.45248
H         59.50856       89.37175       56.28212
H         63.06412       90.97077       54.42152
H         58.14858       90.29016       54.45900
H         61.68776       91.86772       52.59048
H         58.12769       91.54250       52.35081
N         62.72655       87.97658       59.18185
C         63.52144       87.23331       60.16033
C         65.01335       87.46974       59.94127
O         65.45214       88.60961       59.94818
C         63.09411       87.54771       61.62666
C         63.84795       86.66932       62.66492
C         61.57179       87.41362       61.80898
C         63.60276       85.15940       62.56990
H         62.15325       87.41635       58.53346
H         63.31053       86.15725       59.99030
H         63.35287       88.60139       61.85972
H         63.56003       87.00132       63.68624
H         64.93529       86.82760       62.55526
H         61.03476       88.12867       61.15129
H         61.22353       86.39043       61.56007
H         61.28988       87.65046       62.85699
H         64.18784       84.64820       63.36320
H         62.53311       84.91370       62.72159
H         63.93968       84.75138       61.59729
N         65.86733       86.41460       59.80849
C         67.30838       86.58748       59.64029
C         67.90779       85.70505       58.55373
O         69.10263       85.83600       58.31356
C         68.00099       86.29821       60.97764
O         67.75158       84.97602       61.37200
H         65.49144       85.46600       59.93903
H         67.53030       87.63564       59.36641
H         67.59779       87.00615       61.73197
H         69.09726       86.46517       60.89082
H         67.95892       84.92841       62.34027
N         67.19102       84.74502       57.90006
C         67.82377       83.80139       56.98514
C         68.29880       84.47702       55.70472
O         67.84475       85.57817       55.42614
C         66.84071       82.68008       56.65264
H         66.19432       84.61234       58.11716
H         68.69021       83.36433       57.52803
H         65.94100       83.08939       56.14592
H         67.30833       81.93691       55.99359
H         66.52655       82.16691       57.58698
N         69.24835       83.93649       54.87858
C         70.01106       82.71891       55.14641
C         70.25987       81.92865       53.86113
O         70.75546       82.53042       52.91761
C         71.36478       83.12640       55.73207
H         69.55242       84.51512       54.07878
H         69.52507       82.10731       55.91839
H         71.20971       83.69401       56.67478
H         71.96794       82.22252       55.96424
H         71.93011       83.76833       55.02280
N         70.02820       80.58579       53.71614
C         69.50482       79.70133       54.75371
C         67.98607       79.71856       54.80937
O         67.43654       79.16319       55.75169
C         70.03664       78.24406       54.64225
C         69.58535       77.40798       53.42467
C         70.24019       77.81091       52.13638
O         69.56313       78.15627       51.18149
O         71.58267       77.77793       52.02465
H         70.30720       80.17768       52.81731
H         69.90436       80.04397       55.72966
H         69.66353       77.70561       55.54227
H         71.14661       78.23876       54.70619
H         68.47785       77.43461       53.33459
H         69.88312       76.35290       53.60634
N         67.23208       80.31669       53.84271
C         65.78592       80.33936       53.90479
H         65.38753       79.30364       53.94633
H         65.45101       80.89571       54.80466
H         65.37540       80.84499       53.00544
H         67.68158       80.75987       53.02890
Ca        65.41206       91.93596       59.59105
O         66.02303       93.21320       57.01863
H         66.85019       93.60999       56.64727
H         65.29921       93.82704       56.73722
O         68.60620       89.89628       59.50896
H         69.23917       89.21479       59.17067
H         69.13428       90.72965       59.50580
O         66.30879       89.98918       57.37621
H         66.03383       90.46165       56.55101
H         67.07192       89.42344       57.09763

Ca 1.0



