%chk=apoCaM-CA-Ng.loop2.water4.frame1060.chk
%nprocshared=20
%mem=10GB
%nosave
#b3lyp/svp scf=(tight,noincore,xqc) Test 
#IOP(5/87=12) Density=Current Pop=(MK,readradii) iop(6/33=2) iop(6/42=6)

apoCaM-CA-Ng.loop2.water4.frame1060 

   -2  1 
C         10.28819       66.93634       71.06762
C         10.21066       68.42986       71.23593
O         10.05562       69.11686       70.23691
H         11.26873       66.56330       71.43050
H          9.46610       66.44893       71.63275
H         10.18538       66.65675       69.99696
N         10.30140       69.04294       72.45212
C         10.48296       68.35348       73.72618
C         11.82207       68.75776       74.34250
O         12.79923       68.74709       73.60744
C          9.22288       68.58114       74.59695
C          8.88361       70.04113       74.80751
O          7.83101       70.48701       74.37902
O          9.72346       70.86409       75.46131
H         10.23005       70.06958       72.47305
H         10.56421       67.25995       73.56640
H          9.31559       68.06137       75.57244
H          8.36769       68.10779       74.06498
N         11.97032       69.08072       75.66826
C         13.23679       69.45601       76.30103
C         13.78388       70.79619       75.82206
O         14.85769       71.17149       76.27288
C         14.28044       68.33485       76.15854
H         11.15915       69.03248       76.29685
H         13.05398       69.57462       77.39253
H         15.19367       68.58746       76.73875
H         13.86999       67.38533       76.56226
H         14.58889       68.17526       75.10660
N         13.09681       71.58955       74.94929
C         13.58386       72.88066       74.47556
C         12.62380       74.03015       74.85731
O         11.50325       73.64078       75.60043
C         13.81146       72.84088       72.94314
C         12.61654       72.49751       72.08021
O         12.74876       72.45099       70.86834
O         11.41378       72.22293       72.60723
H         12.17982       71.28029       74.61513
H         14.57164       73.10885       74.93109
H         14.59157       72.07912       72.73221
H         14.19608       73.83003       72.61524
N         13.28604       75.22002       75.42283
C         12.33796       76.32993       75.64092
C         11.64092       76.84533       74.38976
O         10.70284       77.61508       74.53856
H         14.07588       75.53302       74.81293
H         12.85884       77.17765       76.13603
H         11.55790       75.98655       76.35400
N         12.03761       76.49833       73.13204
C         11.32478       76.92188       71.93172
C         10.01086       76.11196       71.82762
O         10.26076       74.74337       71.75997
C         12.24660       76.75805       70.69952
C         13.46946       77.65942       70.78309
N         14.41860       77.60828       69.82297
O         13.60877       78.44093       71.71460
H         12.88392       75.92727       73.00901
H         11.07216       78.00356       72.00474
H         11.69441       77.01634       69.77120
H         12.58007       75.69941       70.62741
H         14.33112       76.95262       69.03474
H         15.24730       78.22100       69.87594
N          9.12984       76.53252       70.73406
C          7.87967       75.74031       70.76588
C          6.69461       76.56920       70.30217
O          6.44432       77.57736       70.94700
H          8.92953       77.54422       70.90298
H          7.63788       75.41861       71.80382
H          8.05636       74.81933       70.18215
N          5.90815       76.28914       69.22020
C          6.02613       75.14791       68.32405
C          6.74151       75.61907       67.07817
O          6.26880       76.53035       66.41213
C          4.62266       74.56668       68.02891
C          4.67423       73.39005       67.04477
O          4.05020       74.13622       69.23763
H          5.19058       76.99071       68.97669
H          6.60908       74.33039       68.78524
H          3.99557       75.37495       67.58392
H          3.07293       74.05253       69.08290
H          5.09316       73.71245       66.06824
H          5.29428       72.56443       67.45298
H          3.64635       73.00876       66.86335
N          7.93489       75.05855       66.74142
C          8.75133       75.51994       65.62629
C          8.00527       75.27562       64.31534
O          7.66695       74.12608       64.07069
C         10.13903       74.80095       65.62986
C         10.92049       75.18238       66.92277
C         10.96072       75.18165       64.37765
C         12.22394       74.40913       67.11409
H          8.28777       74.28826       67.32841
H          8.98095       76.57898       65.80056
H          9.96643       73.70150       65.60792
H         10.30714       74.97252       67.82219
H         11.14022       76.27311       66.91920
H         11.92901       74.64564       64.34758
H         10.42734       74.88911       63.44972
H         11.15108       76.27594       64.35050
H         12.69146       74.71909       68.07259
H         12.01446       73.31942       67.15806
H         12.95084       74.61787       66.30505
N          7.74696       76.24091       63.37669
C          8.11088       77.65880       63.45237
C          9.30869       77.94276       62.56318
O          9.75221       77.03919       61.86439
C          6.88300       78.54852       63.13782
C          6.30912       78.42582       61.74446
O          5.21619       79.14369       61.42284
O          6.81445       77.70235       60.90097
H          7.31024       75.91487       62.50085
H          8.42403       77.94446       64.46339
H          7.15183       79.61457       63.29467
H          6.08108       78.29166       63.86398
N          9.93081       79.15999       62.58558
C         11.11013       79.45658       61.77007
C         11.68013       80.82407       62.11417
O         10.91266       81.78003       62.07249
C         10.74732       79.41599       60.26118
C         11.98639       79.44224       59.39683
C         12.71326       80.62793       59.18493
C         12.43932       78.24863       58.80854
C         13.87571       80.61196       58.40806
C         13.60367       78.23624       58.03939
C         14.32279       79.41627       57.83993
H          9.57009       79.88022       63.23202
H         11.86748       78.66911       61.96987
H         10.03804       80.22293       59.97177
H         10.21880       78.46878       60.04707
H         12.38453       81.56407       59.61578
H         11.90150       77.32105       58.96223
H         14.43300       81.52608       58.25014
H         13.94953       77.30836       57.60344
H         15.22622       79.40275       57.24511
N         13.00737       81.05062       62.38316
C         14.09454       80.06757       62.35179
C         14.22335       79.29977       63.66328
O         13.38600       79.46260       64.53870
C         15.32116       80.94569       62.07973
C         14.99230       82.19541       62.86849
C         13.52545       82.39743       62.53768
H         14.00233       79.34834       61.51030
H         16.30463       80.47895       62.29838
H         15.31307       81.23333       61.00296
H         15.04188       81.94261       63.94178
H         15.64013       83.07579       62.67374
H         13.02395       82.96936       63.34880
H         13.40780       82.92870       61.56735
N         15.24693       78.40184       63.83937
C         15.35404       77.54519       65.02122
C         16.33257       76.37210       64.80704
O         17.20096       76.16325       65.64102
C         15.69420       78.37583       66.30476
C         17.10783       79.01422       66.36961
C         17.34504       80.08938       65.35941
O         18.20712       79.95835       64.50461
O         16.66830       81.24422       65.45236
H         15.91493       78.26288       63.06649
H         14.36004       77.06665       65.16935
H         15.62257       77.68220       67.16773
H         14.93381       79.16726       66.46979
H         17.90018       78.25195       66.26785
H         17.25110       79.46945       67.37278
N         16.27365       75.51228       63.74800
C         15.31470       75.54414       62.66517
H         14.54014       76.32092       62.78258
H         15.85928       75.71365       61.71144
H         14.79957       74.56372       62.60968
H         16.98427       74.76451       63.69905
Ca        10.05706       74.09935       73.93275
O          8.13131       75.95492       75.51808
H          8.26792       76.45229       74.67277
H          8.78237       76.35087       76.15049
O          6.42803       73.78505       73.65362
H          5.79514       74.44741       74.02938
H          6.09933       73.62321       72.73357
O          8.09390       73.06327       76.77504
H          7.11166       73.03751       76.89710
H          8.45811       73.11044       77.69458
O          8.45353       72.22542       71.52311
H          7.75163       71.82111       70.95436
H          9.22379       72.34773       70.91333

Ca 1.0



