%chk=apoCaM-CA-Ng.loop4.water7.frame579.chk
%nprocshared=20
%mem=10GB
%nosave
#b3lyp/svp scf=(tight,noincore,xqc) Test 
#IOP(5/87=12) Density=Current Pop=(MK,readradii) iop(6/33=2) iop(6/42=6)

apoCaM-CA-Ng.loop4.water7.frame579 

   -3  1 
C         39.11366        9.35442       79.22018
C         37.79860        8.79822       78.76633
O         37.76442        8.13783       77.74160
H         39.92191        9.08202       78.50663
H         39.05278       10.46045       79.28103
H         39.36647        8.94009       80.21799
N         36.66700        9.02136       79.49802
C         35.33410        8.53311       79.14308
C         35.21023        7.01475       79.17824
O         34.14762        6.52993       78.81418
C         34.85362        9.11213       77.78906
C         34.74946       10.60834       77.83429
O         33.93516       11.20171       78.72795
O         35.38112       11.29343       77.04852
H         36.74895        9.58440       80.35786
H         34.61150        8.89301       79.90863
H         33.83747        8.72548       77.55757
H         35.51946        8.80761       76.96132
N         36.20041        6.19348       79.64564
C         36.03600        4.74033       79.69032
C         34.84542        4.32883       80.56382
O         34.42577        5.11139       81.40443
C         37.35504        3.99928       80.12240
C         37.98319        4.40476       81.49083
C         38.42357        4.17475       79.02877
C         37.14046        4.11037       82.73086
H         37.08407        6.60262       79.97022
H         35.79951        4.43285       78.64887
H         37.15273        2.90945       80.17562
H         38.27672        5.47487       81.50017
H         38.91386        3.80819       81.61656
H         39.33227        3.58504       79.27919
H         38.04361        3.80255       78.05347
H         38.71757        5.23925       78.91759
H         36.82781        3.04485       82.75051
H         37.74324        4.31996       83.63969
H         36.26199        4.76931       82.79425
N         34.19716        3.13411       80.40947
C         34.38551        2.26361       79.25468
C         33.63725        2.81474       78.04460
O         33.83822        2.28955       76.96046
C         33.91062        0.82946       79.55798
C         34.64910        0.23833       80.72708
O         33.97192       -0.15413       81.82293
O         35.86220        0.10543       80.68778
H         33.40182        2.93264       81.03673
H         35.46113        2.19795       79.00138
H         34.08430        0.18045       78.67112
H         32.82009        0.83582       79.77522
N         32.78077        3.88063       78.13952
C         32.06897        4.43360       77.00195
C         30.99384        3.49261       76.51717
O         30.05938        3.22460       77.25910
H         32.62777        4.34786       79.04287
H         32.80162        4.68422       76.20451
H         31.56419        5.37853       77.29920
N         31.07783        2.93982       75.27806
C         30.08986        2.01541       74.72755
C         30.61277        0.58411       74.72574
O         30.00339       -0.26997       74.09677
C         29.60905        2.50113       73.33171
C         30.64680        2.64628       72.23990
O         30.28977        3.00671       71.12995
O         31.95278        2.41095       72.45332
H         31.91936        3.14633       74.72299
H         29.17657        1.98473       75.36153
H         29.12492        3.49343       73.45844
H         28.83229        1.79438       72.96620
N         31.70116        0.23017       75.47377
C         32.26150       -1.11021       75.51562
C         32.94738       -1.50344       74.22335
O         33.45812       -2.61108       74.15136
H         32.14407        0.92744       76.07684
H         31.46355       -1.83709       75.77843
H         33.03668       -1.14746       76.31290
N         33.01979       -0.64178       73.16901
C         33.65949       -0.91642       71.89467
C         35.16723       -1.04118       72.04175
O         35.80652       -1.65712       71.20088
C         32.97481       -2.08198       71.14834
C         31.45244       -1.84644       71.04752
C         30.72501       -2.88459       70.23274
N         29.38081       -2.80406       70.09797
O         31.33373       -3.79507       69.68979
H         32.61053        0.28968       73.25226
H         33.51237       -0.01449       71.25704
H         33.16113       -3.04599       71.66743
H         33.40745       -2.14428       70.12606
H         31.25986       -0.85287       70.58782
H         31.01628       -1.85234       72.06965
H         28.85189       -2.04547       70.55415
H         28.86568       -3.50125       69.54067
N         35.80772       -0.35425       73.03359
C         37.25629       -0.25292       73.16761
C         37.71343        1.19745       73.04363
O         38.91142        1.42405       73.15373
C         37.73176       -0.82467       74.54018
C         37.10547       -0.09902       75.74937
C         37.47349       -2.33103       74.64071
H         35.24073        0.17012       73.71467
H         37.76690       -0.82232       72.35993
H         38.83493       -0.68696       74.60313
H         37.54190       -0.48743       76.69401
H         37.31139        0.99142       75.70892
H         36.00748       -0.25462       75.79476
H         36.38711       -2.55327       74.59896
H         37.98651       -2.85995       73.80957
H         37.88302       -2.72110       75.59796
N         36.83530        2.23346       72.86403
C         37.23778        3.63080       72.94702
C         36.92852        4.36861       71.64605
O         36.07617        3.93626       70.88202
C         36.48669        4.24235       74.15098
C         36.95108        5.59223       74.63076
N         36.25381        6.22102       75.59791
O         37.95004        6.12487       74.17668
H         35.82946        2.05150       72.73958
H         38.33089        3.69289       73.14091
H         36.59150        3.56308       75.02592
H         35.40703        4.29737       73.89004
H         35.40792        5.79812       76.00652
H         36.55718        7.14573       75.91799
N         37.66025        5.46520       71.30945
C         37.51497        6.22323       70.06402
C         38.67733        7.20542       69.89412
O         39.53429        7.27209       70.76649
C         36.15347        6.97086       69.97690
C         35.99646        8.12408       70.94899
C         35.73157        7.89909       72.30859
C         36.08844        9.44971       70.48466
C         35.56370        8.97781       73.18735
C         35.93201       10.52425       71.36295
C         35.66637       10.29497       72.71453
O         35.50557       11.34642       73.54265
H         38.41278        5.71755       71.95740
H         37.57208        5.50543       69.21678
H         35.29043        6.27945       70.07507
H         36.07860        7.37659       68.94639
H         35.63283        6.89114       72.68093
H         36.28970        9.65604       69.44141
H         35.34806        8.79090       74.23198
H         36.01374       11.53827       70.99086
H         35.30468       11.23578       74.48136
N         38.76860        8.02322       68.80375
C         39.83008        9.01382       68.67996
C         39.21971       10.40232       68.77011
O         38.60347       10.82544       67.80166
C         40.62464        8.84088       67.37190
C         41.33204        7.48164       67.29591
C         42.14078        7.37358       66.03481
O         41.59506        7.43690       64.94444
O         43.47504        7.20297       66.10199
H         38.04626        7.98447       68.06954
H         40.55773        8.88435       69.49312
H         41.39574        9.64201       67.32016
H         39.94110        8.95260       66.50083
H         40.58717        6.65741       67.31935
H         42.00907        7.37254       68.17115
N         39.26093       11.17045       69.90326
C         39.80310       10.73664       71.19405
C         41.31007       10.53105       71.18508
O         41.97198       10.86859       70.21247
C         39.40554       11.72069       72.32070
C         40.01034       13.12687       72.16648
C         39.56746       14.01230       73.29333
O         38.92622       15.02562       73.06540
O         39.88237       13.69523       74.56264
H         38.76942       12.07566       69.85903
H         39.31891        9.76723       71.43998
H         39.72753       11.29999       73.29703
H         38.29792       11.80274       72.34448
H         39.69254       13.58025       71.20498
H         41.11926       13.07174       72.17713
N         41.91327        9.94659       72.25790
C         43.33562        9.69372       72.30859
H         43.89482       10.64974       72.23712
H         43.59562        9.19887       73.26931
H         43.63098        9.02167       71.47493
H         41.34183        9.65057       73.06380
Ca        39.48777       13.51418       77.50431
O         42.36252       12.86066       76.72370
H         42.39581       12.87176       75.73419
H         42.72490       13.74145       76.99465
O         37.85475       15.98687       78.65947
H         37.89357       16.37803       79.56799
H         37.05739       16.40117       78.24392
O         38.44005       10.96248       75.85755
H         37.99705       10.93366       74.97326
H         37.88419       11.58538       76.38821
O         41.05914       14.82862       79.72098
H         41.34842       13.88377       79.78669
H         41.72107       15.24835       79.11602
O         36.66263       14.44479       76.08133
H         36.19462       15.30855       75.95818
H         37.25016       14.36728       75.28889
O         40.18783       16.41405       76.53299
H         40.56608       16.84252       77.34157
H         40.97003       16.25362       75.94757
O         36.97120       12.94255       78.99833
H         36.94004       11.97223       79.18924
H         37.04481       13.36713       79.88902

Ca 1.0



