%chk=apoCaM-CA-Ng.loop3.water3.frame733.chk
%nprocshared=20
%mem=10GB
%nosave
#b3lyp/svp scf=(tight,noincore,xqc) Test 
#IOP(5/87=12) Density=Current Pop=(MK,readradii) iop(6/33=2) iop(6/42=6)

apoCaM-CA-Ng.loop3.water3.frame733 

   0  1 
C        101.90522        7.21657      -16.08959
C        103.04092        6.80101      -16.97958
O        102.90779        6.89743      -18.19049
H        101.00588        6.60761      -16.31385
H        102.16234        7.09095      -15.01627
H        101.67474        8.28873      -16.26662
N        104.20751        6.34921      -16.44223
C        105.37795        6.01372      -17.24453
C        105.08441        4.84263      -18.17610
O        104.72810        3.77421      -17.69838
C        106.57193        5.72194      -16.30856
C        107.89131        5.59536      -17.01640
O        109.00475        5.35430      -16.29929
O        107.97222        5.72447      -18.22617
H        104.27908        6.29212      -15.41398
H        105.64572        6.90895      -17.83721
H        106.36663        4.80154      -15.72257
H        106.68198        6.56879      -15.59688
N        105.19533        4.99040      -19.53016
C        104.86869        3.92690      -20.48334
C        105.78277        2.70909      -20.36196
O        105.38040        1.64472      -20.81059
C        104.89908        4.46115      -21.93522
C        103.78147        5.48715      -22.19116
C        103.85791        6.06979      -23.60912
C        102.63611        6.95547      -23.89655
N        102.70736        7.53982      -25.23540
H        105.48737        5.91023      -19.89391
H        103.83280        3.58221      -20.26482
H        104.74894        3.62089      -22.64864
H        105.89156        4.91204      -22.14034
H        103.83610        6.32674      -21.46573
H        102.80748        4.96795      -22.05667
H        103.87985        5.24560      -24.35478
H        104.79210        6.66662      -23.70902
H        102.57113        7.77208      -23.14365
H        101.71549        6.33403      -23.81987
H        101.83561        8.08938      -25.41411
H        103.53099        8.18075      -25.30270
H        102.78405        6.78670      -25.95715
N        107.02279        2.78766      -19.79966
C        107.91752        1.64133      -19.61749
C        108.29094        1.41403      -18.14885
O        108.95259        0.42326      -17.86902
C        109.19225        1.80901      -20.48165
C        109.83000        3.17648      -20.36218
O        110.10046        3.70554      -19.15383
O        110.05266        3.82880      -21.36800
H        107.35986        3.70975      -19.50034
H        107.41747        0.70083      -19.94038
H        108.92520        1.64824      -21.54958
H        109.92332        1.01675      -20.20820
N        107.90020        2.26230      -17.15697
C        108.19692        2.07551      -15.74358
C        109.65960        2.19659      -15.33264
O        109.88976        2.15210      -14.13195
H        107.30963        3.06609      -17.38982
H        107.79550        1.09578      -15.40615
H        107.65370        2.86502      -15.18113
N        110.69692        2.32946      -16.21543
C        112.09741        2.43466      -15.79347
C        112.78617        3.63913      -16.41582
O        112.23461        4.23855      -17.31514
C        112.84065        1.13727      -16.17847
C        112.88666        0.90423      -17.67602
N        112.26622       -0.16123      -18.23262
O        113.49544        1.68456      -18.39326
H        110.50880        2.31127      -17.22216
H        112.15288        2.54575      -14.68893
H        112.32008        0.29092      -15.67973
H        113.88164        1.16093      -15.79105
H        111.74239       -0.83270      -17.65375
H        112.30278       -0.30970      -19.25232
N        114.02753        4.02200      -16.01545
C        114.80866        5.06558      -16.67012
C        114.12438        6.41850      -16.72087
O        113.70096        6.91128      -15.68496
H        114.46574        3.52265      -15.22646
H        115.06794        4.73628      -17.69924
H        115.76098        5.18451      -16.11040
N        114.06400        7.11396      -17.90027
C        113.53706        8.47677      -18.00472
C        111.98738        8.50663      -18.04271
O        111.42497        7.53162      -17.22452
C        114.04532        9.15052      -19.30329
C        115.54400        9.36727      -19.42257
C        116.43878        9.27874      -18.33478
C        116.05741        9.69126      -20.69093
C        117.80636        9.51106      -18.52171
C        117.42564        9.90493      -20.87696
C        118.30452        9.81933      -19.79497
O        119.62100       10.03689      -19.99026
H        114.51999        6.70080      -18.72818
H        113.89412        9.06258      -17.12994
H        113.56665       10.14492      -19.44499
H        113.71800        8.50243      -20.14505
H        116.09919        9.04965      -17.33596
H        115.39491        9.76538      -21.54482
H        118.47868        9.45184      -17.67480
H        117.80211       10.13948      -21.86488
H        120.26413        9.99075      -19.26851
N        111.51604        9.86842      -17.70443
C        110.07419       10.20046      -17.63938
C        109.18158        9.40751      -18.58256
O        109.23821        8.19016      -18.61439
C        109.51234       10.32708      -16.18015
C        109.50905        8.99541      -15.39618
C        108.11115       10.97811      -16.20826
C        109.03438        9.13679      -13.94729
H        112.01371       10.26410      -16.87293
H        110.03202       11.25236      -18.00048
H        110.17598       11.03641      -15.63594
H        110.54798        8.62188      -15.33609
H        108.87224        8.24586      -15.91165
H        107.75616       11.22515      -15.18849
H        108.14384       11.93936      -16.76466
H        107.36816       10.30923      -16.68956
H        109.66055        9.87972      -13.40814
H        107.96993        9.44153      -13.89349
H        109.12409        8.15742      -13.43275
N        108.22826       10.06168      -19.29815
C        107.25177        9.40072      -20.14659
C        107.13647       10.09862      -21.49553
O        106.22713        9.76779      -22.24182
C        105.90071        9.46053      -19.41681
O        104.93584        8.72463      -20.11775
H        108.12396       11.07975      -19.16026
H        107.49656        8.32816      -20.29273
H        105.57332       10.51834      -19.30658
H        106.03440        9.01907      -18.40646
H        104.12124        8.73081      -19.55366
N        107.98645       11.10967      -21.85824
C        107.71660       11.98648      -22.98904
C        108.74833       11.84852      -24.09447
O        109.79131       11.25636      -23.85948
C        107.70303       13.42181      -22.45275
H        108.81218       11.32774      -21.28364
H        106.72409       11.74060      -23.41218
H        107.49530       14.15663      -23.24210
H        106.93128       13.52576      -21.66122
H        108.69364       13.67336      -22.01293
N        108.53131       12.32955      -25.36072
C        107.24464       12.83236      -25.84314
C        107.41525       13.81707      -26.99730
O        108.10651       13.47052      -27.94589
C        106.40421       11.64947      -26.34115
H        109.25709       12.12307      -26.06577
H        106.66484       13.28493      -25.02821
H        106.91047       11.12420      -27.17820
H        106.23148       10.91827      -25.52409
H        105.41184       12.01097      -26.68900
N        106.75152       15.01377      -27.07963
C        105.80494       15.50548      -26.08140
C        106.47365       16.06525      -24.83679
O        105.78248       16.25162      -23.84362
C        104.80538       16.54067      -26.65784
C        105.29146       17.98473      -26.92744
C        106.29364       18.15641      -28.03615
O        107.56610       17.74541      -27.88548
O        105.97732       18.75611      -29.05173
H        106.83386       15.51656      -27.97205
H        105.16388       14.64032      -25.80439
H        103.99627       16.64515      -25.89998
H        104.33384       16.12443      -27.57458
H        105.69410       18.44562      -26.00056
H        104.38109       18.56005      -27.20765
N        107.78947       16.42047      -24.82321
C        108.41073       17.01360      -23.65688
H        109.46522       17.27934      -23.88115
H        107.86874       17.93914      -23.36507
H        108.39723       16.30114      -22.80718
H        108.36551       16.30822      -25.66972
Ca       110.79343        5.83980      -18.67672
O        108.37990        6.11326      -21.23504
H        108.61741        6.78244      -21.92406
H        108.09921        5.31988      -21.75372
O        111.35102        7.33959      -21.23373
H        111.22572        8.30688      -21.40373
H        112.20788        7.11543      -21.67610
O        112.97591        4.33874      -20.32445
H        113.88812        4.66909      -20.12997
H        112.90737        4.36096      -21.31178

Ca 1.0



