%chk=apoCaM-CA-Ng.loop2.water4.frame1163.chk
%nprocshared=20
%mem=10GB
%nosave
#b3lyp/svp scf=(tight,noincore,xqc) Test 
#IOP(5/87=12) Density=Current Pop=(MK,readradii) iop(6/33=2) iop(6/42=6)

apoCaM-CA-Ng.loop2.water4.frame1163 

   -2  1 
C         89.27691       61.62024      110.20513
C         87.81776       61.26460      110.25369
O         87.49514       60.11167      110.00590
H         89.88624       60.73027      109.93693
H         89.45219       62.40609      109.44164
H         89.60694       61.97867      111.20263
N         86.84629       62.16866      110.57071
C         87.06937       63.57667      110.88659
C         86.37580       64.45285      109.84126
O         86.48166       64.10976      108.67225
C         86.67483       63.81606      112.36467
C         85.24227       63.45638      112.68631
O         84.31367       64.08523      112.20841
O         84.98073       62.43666      113.52632
H         85.88112       61.82570      110.59747
H         88.14683       63.81878      110.79980
H         86.88381       64.86066      112.67298
H         87.32831       63.15999      112.98086
N         85.69080       65.60271      110.15326
C         85.02104       66.45802      109.16575
C         83.84004       65.76386      108.48277
O         83.29863       66.31262      107.53324
C         86.03379       67.00023      108.14081
H         85.64881       65.91954      111.13048
H         84.60903       67.34993      109.68871
H         86.86152       67.52123      108.66776
H         86.46269       66.20197      107.50400
H         85.54102       67.73460      107.46865
N         83.36697       64.57066      108.94088
C         82.30440       63.78433      108.32379
C         81.10874       63.68420      109.25448
O         81.07862       64.41433      110.23828
C         82.92200       62.42660      107.90499
C         83.65520       61.58219      108.94059
O         83.55363       61.73264      110.28356
O         84.39807       60.70818      108.52448
H         83.78509       64.16743      109.78470
H         81.93177       64.26279      107.39081
H         83.70005       62.70903      107.15990
H         82.19178       61.79371      107.36076
N         80.08499       62.80027      109.02689
C         78.95640       62.64715      109.94225
C         78.77273       61.19530      110.44746
O         79.92405       60.57862      110.95587
H         80.10270       62.20769      108.18456
H         78.02819       62.93243      109.40318
H         79.04933       63.32000      110.81911
N         77.63165       61.11620      111.36704
C         77.63483       60.02664      112.36823
C         77.90074       58.65308      111.75572
O         77.25382       58.28985      110.78382
C         76.28397       60.05226      113.10939
C         76.22935       59.06892      114.25155
N         75.28932       58.09600      114.28022
O         77.03334       59.16129      115.16748
H         76.77489       61.05580      110.76918
H         78.41967       60.25151      113.12523
H         75.46340       59.85120      112.38653
H         76.12572       61.06971      113.52967
H         74.59814       58.00545      113.52145
H         75.24815       57.43232      115.06756
N         78.84706       57.83543      112.30830
C         79.22964       56.52717      111.78763
C         78.09390       55.51421      111.71799
O         76.96796       55.85557      112.04977
H         79.35123       58.16503      113.14596
H         80.02380       56.11943      112.45087
H         79.65071       56.65828      110.76806
N         78.28501       54.23139      111.27374
C         79.58481       53.65029      110.93207
C         79.68524       53.30549      109.45785
O         78.70138       53.38052      108.73442
C         79.83570       52.37250      111.77718
C         79.84196       52.66268      113.27755
O         78.84586       51.40809      111.51330
H         77.45633       53.62021      111.19736
H         80.39906       54.37317      111.13162
H         80.84188       51.95371      111.53908
H         79.14743       50.88309      110.72599
H         80.63563       53.39820      113.52439
H         78.85853       53.05884      113.60802
H         80.04393       51.72255      113.83529
N         80.89663       52.94028      108.94720
C         81.10804       52.58219      107.55139
C         80.72669       51.11607      107.36035
O         81.35722       50.29380      108.01165
C         82.60822       52.78007      107.15675
C         83.11940       54.22838      107.40132
C         82.86761       52.35477      105.69635
C         82.38491       55.32364      106.62141
H         81.71181       52.95164      109.57919
H         80.54456       53.28112      106.91711
H         83.23215       52.11807      107.79934
H         84.19704       54.27110      107.13001
H         83.04963       54.47469      108.48143
H         83.94265       52.48012      105.44680
H         82.62144       51.28265      105.54657
H         82.25652       52.94727      104.98530
H         82.45955       55.15606      105.52939
H         81.31798       55.38120      106.91786
H         82.84921       56.30612      106.84815
N         79.77410       50.65051      106.49645
C         78.86856       51.44336      105.66729
C         79.09666       51.18483      104.19132
O         79.83192       50.26878      103.84449
C         77.39725       51.09426      106.01751
C         77.00514       49.66331      105.69889
O         77.56777       48.62569      106.34787
O         76.14514       49.44050      104.86174
H         79.69506       49.62617      106.43000
H         79.00263       52.52035      105.84033
H         76.73057       51.76932      105.43852
H         77.20949       51.28367      107.09536
N         78.44333       51.93630      103.25490
C         78.39263       51.54299      101.85224
C         77.78159       52.64102      100.97319
O         76.70884       53.12180      101.31802
C         77.47343       50.29857      101.76246
C         77.37637       49.74071      100.36868
C         76.18386       49.86254       99.63613
C         78.47633       49.08676       99.79262
C         76.10010       49.34769       98.34018
C         78.38655       48.56709       98.49895
C         77.20015       48.69948       97.77217
H         77.89049       52.74977      103.56796
H         79.41825       51.29845      101.51248
H         76.46425       50.60339      102.12179
H         77.81472       49.48327      102.43432
H         75.32430       50.36566      100.06215
H         79.40009       48.97888      100.34806
H         75.18196       49.45177       97.77696
H         79.23716       48.06225       98.06070
H         77.13264       48.29882       96.76966
N         78.32805       53.02864       99.77397
C         79.51382       52.45354       99.15822
C         80.79121       53.16942       99.56000
O         81.85417       52.65733       99.23638
C         79.23589       52.64170       97.66428
C         78.57512       54.01030       97.64962
C         77.63295       53.90622       98.84839
H         79.62115       51.37353       99.35657
H         80.11842       52.52533       96.99891
H         78.46419       51.89848       97.35589
H         79.36063       54.76589       97.87357
H         78.07793       54.29639       96.69879
H         77.41129       54.90937       99.27233
H         76.68640       53.40301       98.54909
N         80.77911       54.37329      100.20490
C         82.00291       55.08910      100.54945
C         82.80297       55.38038       99.27876
O         82.29557       56.12840       98.45403
C         81.68226       56.42786      101.25622
C         80.98822       56.22904      102.61615
C         80.63927       57.52793      103.29474
O         80.04149       57.49946      104.50062
O         80.87710       58.60523      102.76966
H         79.87359       54.80935      100.42763
H         82.56372       54.47451      101.26903
H         81.03543       57.04596      100.59274
H         82.63222       56.98080      101.43248
H         81.66647       55.65366      103.27999
H         80.04726       55.65553      102.49308
N         84.03455       54.85341       98.99560
C         84.78463       53.89632       99.78967
H         85.76132       54.33793      100.07462
H         84.28399       53.55455      100.70689
H         84.97244       52.99082       99.17455
H         84.48221       55.13941       98.11070
Ca        81.60711       62.01524      111.32375
O         83.02329       59.47840      112.22909
H         82.60282       59.29024      111.35244
H         82.87590       58.65410      112.75642
O         82.40320       63.84318      114.87276
H         83.31991       64.06906      115.17047
H         81.81753       64.19648      115.58854
O         81.03620       60.83255      114.42271
H         80.33184       61.10927      115.06121
H         80.97588       59.84463      114.40038
O         79.50033       63.49187      113.49614
H         78.55028       63.23398      113.39094
H         79.54817       63.89541      114.39867

Ca 1.0



