%chk=apoCaM-CA-Ng.loop1.water4.frame161.chk
%nprocshared=20
%mem=10GB
%nosave
#b3lyp/svp scf=(tight,noincore,xqc) Test 
#IOP(5/87=12) Density=Current Pop=(MK,readradii) iop(6/33=2) iop(6/42=6)

apoCaM-CA-Ng.loop1.water4.frame161 

   0  1 
C         78.25787       42.87160       40.79426
C         79.52430       43.26972       40.09087
O         79.79719       42.74609       39.02010
H         77.38335       43.09347       40.14859
H         78.28412       41.78383       41.01492
H         78.13496       43.41747       41.75421
N         80.35536       44.19919       40.64095
C         81.60000       44.64358       40.01293
C         82.69962       43.56617       39.95455
O         83.77915       43.87358       39.46937
C         82.09663       45.95523       40.67502
C         82.57455       45.83789       42.09605
O         83.70207       46.20416       42.38029
O         81.75499       45.40785       43.07378
H         80.04937       44.64955       41.51538
H         81.35874       44.93312       38.96972
H         81.27135       46.69927       40.65396
H         82.92209       46.36662       40.05729
N         82.49327       42.28533       40.38912
C         83.49117       41.21404       40.37312
C         83.05488       40.11481       39.40441
O         81.89032       39.74549       39.47321
C         83.58321       40.61094       41.79241
C         84.04260       41.60878       42.86965
C         85.52407       41.99778       42.72057
C         86.01965       42.91739       43.84780
N         85.42105       44.24831       43.77534
H         81.57465       42.02399       40.76579
H         84.47739       41.59494       40.09312
H         84.26829       39.73506       41.79635
H         82.57322       40.24066       42.07749
H         83.92428       41.11133       43.85683
H         83.37945       42.49817       42.85349
H         85.71820       42.49079       41.74525
H         86.12348       41.06285       42.76795
H         87.12198       43.02511       43.74695
H         85.80911       42.45677       44.83840
H         84.38759       44.19839       43.91270
H         85.82394       44.84804       44.53057
H         85.64752       44.68010       42.85015
N         83.87493       39.47471       38.50434
C         85.31475       39.64294       38.29843
C         86.10033       39.35015       39.56421
O         86.53786       40.29107       40.20985
C         85.70719       40.97578       37.62890
C         85.02456       41.13226       36.30670
O         84.23642       42.19262       36.11471
O         85.17436       40.31545       35.41214
H         83.43658       38.73716       37.92964
H         85.64633       38.90579       37.54281
H         86.80584       40.98860       37.45312
H         85.46820       41.85205       38.25635
N         86.42212       38.08737       39.97418
C         86.15381       36.84625       39.25905
C         85.52155       35.79731       40.14910
O         85.07167       36.13660       41.23487
H         87.00074       38.00209       40.82487
H         87.14361       36.48507       38.93639
H         85.51935       36.96557       38.36067
N         85.43621       34.48045       39.78355
C         85.99912       33.90843       38.55642
C         87.51362       34.03609       38.52473
O         88.14832       33.83400       39.55156
C         85.62022       32.41910       38.37913
C         86.23265       31.49025       39.39964
O         85.93276       31.60563       40.70664
O         87.00226       30.61389       39.03817
H         84.94545       33.84849       40.43378
H         85.55383       34.43753       37.68464
H         85.96887       32.10433       37.36892
H         84.51534       32.31035       38.39856
N         88.15560       34.35951       37.36614
C         89.59766       34.54860       37.27776
C         89.96851       35.95009       36.83518
O         91.15370       36.25012       36.80408
H         87.59670       34.46958       36.50626
H         90.02230       33.81413       36.56027
H         90.08033       34.37578       38.26294
N         89.02487       36.86234       36.46424
C         89.34244       38.23293       36.08964
C         89.62763       39.02516       37.35088
O         88.98254       38.77640       38.36017
C         88.16945       38.85906       35.30449
C         87.87167       38.06012       34.02283
O         88.49857       40.17870       34.95900
H         88.03258       36.59421       36.45563
H         90.21850       38.25011       35.40155
H         87.27220       38.85456       35.95610
H         87.68055       40.58541       34.57235
H         87.01771       38.51654       33.48215
H         88.75775       38.05825       33.35304
H         87.59591       37.00982       34.25053
N         90.56553       40.01140       37.36255
C         90.91539       40.75904       38.56960
C         90.45696       42.21774       38.50552
O         90.73902       42.94971       39.44426
C         92.43997       40.59105       38.88323
C         93.36580       41.20641       37.79728
C         92.75272       39.09652       39.10987
C         94.85335       41.16600       38.17240
H         91.04976       40.23814       36.48109
H         90.37706       40.34792       39.45154
H         92.64017       41.12197       39.84037
H         93.09404       42.27392       37.65670
H         93.24017       40.68292       36.82628
H         92.08537       38.68004       39.89364
H         92.60722       38.51385       38.17480
H         93.79209       38.94359       39.46199
H         95.02556       41.69400       39.13427
H         95.22881       40.12562       38.25445
H         95.45164       41.66818       37.38301
N         89.73360       42.71443       37.45445
C         89.33754       44.12317       37.36717
C         88.22321       44.50604       38.33948
O         87.60196       43.63304       38.93466
C         88.92631       44.49334       35.91860
C         87.61923       43.82329       35.46315
O         89.97180       44.13593       35.05089
H         89.52357       42.09364       36.66255
H         90.24156       44.72726       37.60485
H         88.77777       45.59690       35.87761
H         89.82038       44.61785       34.19697
H         87.69529       42.72122       35.48398
H         86.76704       44.13119       36.10460
H         87.39418       44.13686       34.42450
N         87.92491       45.82497       38.53698
C         86.85324       46.31559       39.40480
C         86.12975       47.50712       38.76157
O         86.49936       47.92951       37.67117
C         87.42841       46.68862       40.80296
C         88.45943       47.82767       40.77084
O         87.96729       45.55182       41.43210
H         88.53692       46.52494       38.08720
H         86.10030       45.51304       39.57249
H         86.59757       47.03456       41.45209
H         88.81589       45.31758       40.97491
H         88.01067       48.75057       40.34751
H         88.79683       48.05003       41.80572
H         89.34522       47.54402       40.16546
N         85.10899       48.13011       39.41578
C         84.48318       49.37337       38.96102
C         83.35581       49.14682       37.96111
O         82.73500       50.12624       37.57039
C         83.93166       50.15134       40.18024
C         85.05168       50.54754       41.15700
C         84.48088       51.24015       42.40092
C         85.56749       51.68683       43.39532
N         86.37946       50.56827       43.88166
H         84.84155       47.76909       40.34368
H         85.24770       50.03074       38.48725
H         83.17498       49.52284       40.70043
H         83.43346       51.08738       39.84088
H         85.76632       51.22750       40.64240
H         85.59330       49.63571       41.47544
H         83.78240       50.54451       42.91544
H         83.90765       52.14123       42.08989
H         85.05846       52.16686       44.26056
H         86.22806       52.44674       42.92250
H         87.00660       50.91017       44.64478
H         85.76758       49.80919       44.25989
H         86.98510       50.19364       43.11680
N         83.02756       47.91036       37.48554
C         81.90739       47.71266       36.57047
C         80.60387       47.96388       37.30480
O         80.30891       47.25650       38.25760
C         81.94944       46.29197       35.97860
C         80.77080       45.98984       35.03209
C         80.96550       44.62903       34.44630
O         82.02250       44.40314       33.64850
O         80.24932       43.70004       34.78504
H         83.58790       47.09295       37.76477
H         82.01410       48.41362       35.71255
H         81.95028       45.54019       36.79772
H         82.90996       46.19023       35.42486
H         80.70661       46.73330       34.21061
H         79.82558       46.01078       35.61669
N         79.76667       48.95993       36.90955
C         78.51045       49.21305       37.58110
H         77.85520       48.31871       37.50691
H         78.69133       49.45064       38.65124
H         77.99353       50.07358       37.10669
H         80.02512       49.55743       36.11030
Ca        83.13722       42.57528       34.21650
O         81.68328       40.49172       36.06830
H         81.82920       41.20714       36.73713
H         81.08959       39.84481       36.52476
O         85.32518       43.70016       32.63283
H         86.20913       43.94017       32.25825
H         85.17809       44.35020       33.36576
O         84.75739       40.53412       31.96724
H         85.05897       40.71955       31.04254
H         85.56459       40.19172       32.42632
O         82.11152       42.38715       31.20615
H         81.39851       41.88260       30.74000
H         82.55610       42.90878       30.49156

Ca 1.0



