%chk=apoCaM-CA-Ng.loop2.water3.frame170.chk
%nprocshared=20
%mem=10GB
%nosave
#b3lyp/svp scf=(tight,noincore,xqc) Test 
#IOP(5/87=12) Density=Current Pop=(MK,readradii) iop(6/33=2) iop(6/42=6)

apoCaM-CA-Ng.loop2.water3.frame170 

   -2  1 
C         93.59094       49.89938       30.97750
C         94.70404       50.00842       31.97826
O         94.60830       49.40199       33.03541
H         92.64856       50.27347       31.42994
H         93.80426       50.49912       30.06714
H         93.45887       48.83893       30.67906
N         95.79122       50.78447       31.71323
C         96.90242       50.96896       32.63634
C         96.98067       52.42134       33.10678
O         97.93941       52.74530       33.78356
C         98.19890       50.50713       31.93562
C         99.38659       50.49648       32.86191
O        100.36932       51.17569       32.61144
O         99.37243       49.73045       33.97033
H         95.83330       51.28912       30.81351
H         96.77026       50.33849       33.54388
H         98.40028       51.15929       31.05717
H         98.06018       49.46615       31.57184
N         95.99687       53.33180       32.81474
C         95.93174       54.72808       33.25028
C         95.75818       54.87011       34.75744
O         94.66390       55.20979       35.17814
C         97.09218       55.56255       32.70344
H         95.19553       53.02728       32.24477
H         95.00598       55.15008       32.79344
H         98.06914       55.22072       33.09902
H         97.11369       55.48704       31.59553
H         96.95018       56.62924       32.97997
N         96.77981       54.64704       35.63034
C         96.65646       54.72850       37.07967
C         96.87854       53.36290       37.72499
O         97.00962       53.30392       38.93989
C         97.60664       55.82092       37.61682
C         99.05113       55.59982       37.25805
O         99.70203       54.50257       37.68739
O         99.64329       56.42425       36.57944
H         97.70976       54.41365       35.27073
H         95.63614       55.04075       37.38443
H         97.51316       55.89034       38.72215
H         97.27641       56.79647       37.19447
N         96.82840       52.21068       36.98784
C         96.93627       50.87651       37.55680
C         95.88599       50.66077       38.61778
O         96.23720       50.32944       39.74167
H         96.65121       52.25839       35.97621
H         97.95204       50.72855       37.98358
H         96.78835       50.12765       36.74781
N         94.57330       50.89955       38.34478
C         93.55028       50.87358       39.38230
C         93.09124       49.45258       39.64283
O         92.64038       48.78015       38.72632
C         92.36997       51.80107       39.04125
C         92.83620       53.23652       38.91261
N         92.47738       54.16814       39.82613
O         93.56064       53.55812       37.98374
H         94.32296       51.23157       37.40031
H         93.97414       51.30877       40.31696
H         91.63872       51.73136       39.87647
H         91.85647       51.48546       38.11197
H         91.88195       53.92369       40.63012
H         92.81684       55.13800       39.74095
N         93.18374       48.93923       40.89924
C         92.82111       47.58300       41.27038
C         91.35506       47.26970       41.07051
O         90.51334       48.03607       41.51857
H         93.55641       49.54038       41.65022
H         93.02551       47.46809       42.35715
H         93.46463       46.85475       40.73263
N         90.98334       46.08359       40.50266
C         89.59263       45.62768       40.46916
C         88.77517       46.28270       39.35869
O         87.56066       46.14059       39.37732
C         89.49843       44.07563       40.41366
C         90.03836       43.45056       39.11677
O         90.12742       43.50530       41.53672
H         91.73314       45.43436       40.22652
H         89.12901       45.91374       41.44116
H         88.42390       43.79564       40.47403
H         91.11002       43.55690       41.40645
H         91.11281       43.67671       38.96191
H         89.91775       42.34744       39.15599
H         89.46640       43.82214       38.24955
N         89.36605       46.99409       38.35446
C         88.62758       47.69574       37.29982
C         88.99178       49.16969       37.32289
O         89.83380       49.56119       38.12099
C         88.93535       47.09629       35.89410
C         90.45191       47.14762       35.56466
C         88.36771       45.67332       35.77977
C         90.76551       46.83315       34.10401
H         90.39302       47.05850       38.33547
H         87.53042       47.62879       37.47413
H         88.39362       47.71061       35.14334
H         91.01357       46.44640       36.21871
H         90.83580       48.17340       35.74818
H         88.48448       45.27350       34.75306
H         88.87794       44.99173       36.48204
H         87.28025       45.67528       36.00843
H         91.85949       46.92810       33.93863
H         90.46534       45.80215       33.83317
H         90.24574       47.55885       33.44240
N         88.40238       50.05661       36.46439
C         88.79669       51.45881       36.44942
C         87.66639       52.35897       35.95611
O         87.90988       53.31018       35.22877
C         90.12724       51.59286       35.66520
C         90.80973       52.92676       35.78644
O         91.86650       53.11145       35.20436
O         90.29787       53.90696       36.55383
H         87.65530       49.73412       35.83097
H         88.94355       51.76687       37.50905
H         89.93404       51.36684       34.59335
H         90.84924       50.83628       36.04015
N         86.39440       52.13561       36.39373
C         85.27737       53.06200       36.22283
C         85.06531       53.49628       34.76956
O         84.88002       52.62848       33.93013
C         83.98214       52.40242       36.75020
C         82.89003       53.41226       36.97254
C         83.00847       54.32732       38.03268
C         81.74829       53.44483       36.15715
C         81.99982       55.26000       38.27591
C         80.74409       54.38909       36.39764
C         80.86861       55.29310       37.45770
H         86.22849       51.28925       36.95935
H         85.51883       53.93343       36.86179
H         84.15477       51.90268       37.72835
H         83.67113       51.60940       36.03340
H         83.87862       54.30742       38.67809
H         81.63955       52.74947       35.33421
H         82.09629       55.95394       39.10082
H         79.86727       54.41878       35.76461
H         80.08845       56.01806       37.64770
N         85.04398       54.81776       34.39483
C         84.87007       55.30229       33.02699
C         85.87420       54.73088       32.04272
O         85.48777       54.31461       30.95997
C         85.10446       56.81778       33.15349
C         84.55835       57.10048       34.52757
C         85.12184       55.92933       35.32480
H         83.82532       55.09988       32.69919
H         86.19485       57.04170       33.20980
H         84.66858       57.42153       32.32881
H         84.79671       58.10166       34.94517
H         83.45009       56.99089       34.47168
H         86.18415       56.07779       35.61869
H         84.47464       55.80731       36.21656
N         87.19687       54.70127       32.36900
C         88.27040       54.27128       31.47034
C         88.15652       52.81224       31.03287
O         88.93869       52.41204       30.18120
C         89.63517       54.44944       32.17612
C         89.94852       55.90765       32.56030
C         91.09325       55.93603       33.52764
O         92.19461       55.51676       33.20965
O         90.86827       56.36527       34.78521
H         87.44421       55.03224       33.31161
H         88.23732       54.90969       30.55927
H         90.46716       54.07573       31.53865
H         89.60294       53.82540       33.09765
H         89.08986       56.37639       33.07910
H         90.16360       56.51651       31.65613
N         87.24208       51.95463       31.56935
C         87.11211       50.56708       31.17511
H         86.08448       50.39110       30.79328
H         87.83453       50.27860       30.38370
H         87.28124       49.91920       32.06062
H         86.60883       52.27524       32.30587
Ca        92.37627       56.16158       36.44896
O         90.44486       56.12889       38.76400
H         89.65614       55.53610       38.68490
H         90.19882       56.78223       39.46531
O         94.39317       57.33931       38.28646
H         93.60472       57.77097       38.70151
H         94.76757       56.76625       39.00157
O         92.44448       59.03459       35.69472
H         92.31493       59.13947       36.67081
H         91.52822       58.93025       35.33436

Ca 1.0



