%chk=apoCaM-CA-Ng.loop1.water1.frame847.chk
%nprocshared=20
%mem=10GB
%nosave
#b3lyp/svp scf=(tight,noincore,xqc) Test 
#IOP(5/87=12) Density=Current Pop=(MK,readradii) iop(6/33=2) iop(6/42=6)

apoCaM-CA-Ng.loop1.water1.frame847 

   0  1 
C         54.10573       68.45902      107.54330
C         52.79463       68.08499      106.92187
O         52.13532       67.17952      107.41194
H         54.91833       68.32193      106.79771
H         54.07992       69.52071      107.86315
H         54.32223       67.81728      108.42387
N         52.37380       68.73116      105.80050
C         51.15870       68.37626      105.07335
C         51.53697       67.68054      103.77400
O         52.71814       67.45575      103.54319
C         50.19249       69.58433      104.96378
C         50.69099       70.82700      104.27674
O         51.81634       70.90057      103.81962
O         49.87515       71.89496      104.18788
H         52.98583       69.46239      105.40844
H         50.58827       67.60403      105.63481
H         49.91057       69.87962      105.99785
H         49.26282       69.26074      104.45087
N         50.57854       67.20707      102.93013
C         50.86300       66.25436      101.86299
C         50.71858       66.91663      100.50930
O         49.73965       66.69913       99.80921
C         49.99151       65.00291      102.11451
C         50.34438       63.80244      101.22199
C         49.68675       62.52546      101.77298
C         50.07806       61.28355      100.96084
N         49.56473       60.06706      101.59325
H         49.59008       67.44027      103.10836
H         51.91482       65.89552      101.92247
H         48.90694       65.24039      102.03756
H         50.19814       64.70111      103.16617
H         51.44529       63.64759      101.24751
H         50.03442       63.99435      100.17249
H         48.57985       62.63218      101.78432
H         50.03799       62.37718      102.81810
H         51.18691       61.21148      100.90224
H         49.67476       61.37180       99.92844
H         49.98377       59.95706      102.54649
H         48.52280       60.10673      101.67190
H         49.83368       59.23854      101.01566
N         51.74117       67.70509      100.06145
C         51.75255       68.38781       98.77320
C         53.15478       68.90231       98.41874
O         53.75258       69.58718       99.22948
C         50.69183       69.50631       98.69615
C         50.71398       70.68013       99.65802
O         49.86613       71.54138       99.48586
O         51.56937       70.85482      100.69378
H         52.58115       67.76376      100.65152
H         51.45983       67.65105       98.00357
H         49.68899       69.03944       98.79351
H         50.75049       69.92667       97.66789
N         53.76159       68.67609       97.21409
C         53.11825       68.06589       96.06670
C         52.88998       66.57849       96.17756
O         53.54063       65.89979       96.95975
H         54.69775       69.08374       97.06085
H         53.74076       68.22223       95.15977
H         52.15891       68.59647       95.88568
N         51.93525       66.02233       95.38340
C         51.60768       64.60662       95.31706
C         51.65078       64.18049       93.85973
O         51.01319       64.82474       93.03589
C         50.20279       64.38821       95.90303
C         49.80740       62.93680       95.86187
O         48.81434       62.58890       95.24369
O         50.54852       62.01348       96.50484
H         51.37884       66.65928       94.79119
H         52.31889       64.00088       95.92269
H         49.46050       64.99989       95.34478
H         50.19773       64.72038       96.96457
N         52.36819       63.09358       93.46202
C         52.46307       62.69924       92.06459
C         53.39129       63.59469       91.26034
O         53.54312       63.35033       90.07309
H         52.84018       62.51135       94.17019
H         51.44624       62.65975       91.61585
H         52.89591       61.67719       92.00908
N         54.10702       64.59317       91.85480
C         55.13912       65.37942       91.18759
C         54.85808       66.87333       91.32339
O         53.85637       67.24930       91.91533
C         56.52277       64.97567       91.77686
C         56.60576       65.07754       93.30841
O         56.79887       63.65045       91.40141
H         53.98084       64.77216       92.85845
H         55.17148       65.16088       90.09745
H         57.29637       65.64085       91.33310
H         57.78676       63.54688       91.39978
H         55.93706       64.33866       93.79724
H         57.64049       64.85538       93.64263
H         56.32573       66.08276       93.66399
N         55.73497       67.78327       90.79972
C         55.57664       69.23332       90.92670
C         55.63880       69.96131       89.58808
O         55.41226       71.16576       89.59901
C         56.65976       69.81482       91.89209
C         58.10302       69.52609       91.38506
C         56.43283       69.27911       93.31328
C         59.20479       70.11744       92.26402
H         56.57822       67.42931       90.33247
H         54.57795       69.46709       91.35726
H         56.51754       70.91738       91.94564
H         58.22070       69.95931       90.36847
H         58.28574       68.43347       91.32097
H         56.61004       68.19272       93.34384
H         57.10772       69.76768       94.04344
H         55.39291       69.48882       93.64192
H         60.19249       69.90537       91.80197
H         59.08081       71.21576       92.35861
H         59.20627       69.65128       93.27058
N         55.98333       69.34813       88.41599
C         56.13865       70.07789       87.16014
C         57.60651       70.09514       86.75812
O         58.40798       69.37966       87.34796
C         55.25254       69.43794       86.05998
C         53.77067       69.45268       86.44829
O         55.40654       70.12951       84.84725
H         56.20102       68.34121       88.40061
H         55.83867       71.14092       87.29208
H         55.58189       68.37844       85.93588
H         55.22030       69.48202       84.11651
H         53.60225       68.88864       87.38948
H         53.41726       70.49720       86.58106
H         53.16951       68.97250       85.64678
N         58.03348       70.94308       85.78226
C         59.41310       71.03282       85.32153
C         59.98861       72.40468       85.65721
O         61.01393       72.47230       86.31920
C         59.46233       70.71376       83.80328
C         60.89322       70.72791       83.25465
O         58.67095       71.62126       83.07978
H         57.34144       71.57160       85.34656
H         60.04604       70.27008       85.83008
H         59.04818       69.68545       83.67591
H         58.46342       71.19828       82.20556
H         61.51981       69.98957       83.79780
H         60.88417       70.45497       82.17787
H         61.34563       71.73721       83.35544
N         59.37668       73.53842       85.21710
C         59.88267       74.89228       85.41409
C         58.86843       75.72961       86.17214
O         57.71670       75.80156       85.76753
C         60.22632       75.55332       84.05304
C         59.18875       75.29709       82.94035
C         59.49228       76.04550       81.63691
C         59.09660       77.52724       81.71614
N         59.33345       78.19607       80.43767
H         58.49534       73.44248       84.69639
H         60.82905       74.89547       85.99924
H         61.18670       75.12625       83.68835
H         60.39418       76.63844       84.22592
H         58.15572       75.53828       83.26426
H         59.23605       74.21325       82.70398
H         58.87450       75.58591       80.83514
H         60.56255       75.92135       81.36086
H         59.66249       78.04889       82.51663
H         58.01111       77.59052       81.95782
H         58.82453       77.70102       79.66879
H         58.97934       79.17814       80.49406
H         60.35781       78.21247       80.22860
N         59.26200       76.44858       87.26389
C         58.37872       77.37133       87.96433
C         57.51266       76.63976       88.98385
O         56.30060       76.72308       88.84544
C         59.16199       78.56759       88.55525
C         59.85170       79.38872       87.44764
C         60.59548       80.58467       87.97920
O         61.18220       81.31944       87.20106
O         60.62670       80.86055       89.29824
H         60.25740       76.42775       87.53442
H         57.69229       77.84380       87.22317
H         59.93253       78.23580       89.27165
H         58.44483       79.23153       89.08771
H         59.08513       79.74868       86.72744
H         60.57620       78.74755       86.90139
N         57.98977       75.89090       90.02372
C         59.38546       75.64726       90.31981
H         59.90616       76.58158       90.59102
H         59.46506       74.97405       91.19985
H         59.88328       75.14470       89.46709
H         57.30146       75.43694       90.64499
Ca        53.27840       69.82955      101.78422
O         55.72809       68.11417      102.00352
H         55.65109       67.87452      102.96182
H         55.03451       67.56794      101.55519

Ca 1.0



