%chk=apoCaM-CA-Ng.loop1.water2.frame126.chk
%nprocshared=20
%mem=10GB
%nosave
#b3lyp/svp scf=(tight,noincore,xqc) Test 
#IOP(5/87=12) Density=Current Pop=(MK,readradii) iop(6/33=2) iop(6/42=6)

apoCaM-CA-Ng.loop1.water2.frame126 

   0  1 
C         51.66168       40.45457      -14.63302
C         51.55800       39.35751      -13.61158
O         52.51997       39.11575      -12.89811
H         51.90043       41.41317      -14.12887
H         52.46152       40.21089      -15.36288
H         50.70902       40.58172      -15.19160
N         50.41287       38.63202      -13.50995
C         50.21830       37.52660      -12.57713
C         50.11284       36.19729      -13.32277
O         49.83369       35.18892      -12.68903
C         48.99915       37.80970      -11.66237
C         47.68602       37.99928      -12.37968
O         46.66307       37.16659      -12.13425
O         47.51364       38.94142      -13.13509
H         49.65013       38.84632      -14.16780
H         51.09167       37.42246      -11.89804
H         49.19818       38.72734      -11.06703
H         48.89724       36.96742      -10.94220
N         50.38867       36.11314      -14.65847
C         50.32261       34.89528      -15.45593
C         51.69048       34.58601      -16.04622
O         52.29425       35.50674      -16.58156
C         49.34905       35.11915      -16.62801
C         47.89896       35.38365      -16.20468
C         47.25397       34.17188      -15.50796
C         45.74671       34.35467      -15.27684
N         45.45440       35.43203      -14.33403
H         50.67480       36.96109      -15.16811
H         49.95757       34.04950      -14.86287
H         49.35798       34.23536      -17.29860
H         49.70264       35.98787      -17.22646
H         47.32778       35.59242      -17.13487
H         47.86032       36.28597      -15.55970
H         47.74915       33.95986      -14.53652
H         47.37716       33.28490      -16.16625
H         45.34104       33.40426      -14.86500
H         45.24039       34.55232      -16.24717
H         45.90094       35.21334      -13.41548
H         45.79090       36.35201      -14.69671
H         44.42011       35.49418      -14.19780
N         52.25158       33.33912      -16.10219
C         51.71110       32.07464      -15.60756
C         50.30232       31.78104      -16.12921
O         49.39718       31.61879      -15.31964
C         51.75943       32.00981      -14.07345
C         53.08527       32.36403      -13.47767
O         53.13305       33.36218      -12.57888
O         54.07711       31.69077      -13.69937
H         53.15751       33.26405      -16.59273
H         52.37994       31.27060      -15.96964
H         51.49461       30.97593      -13.76273
H         51.01627       32.68881      -13.62364
N         49.98841       31.70626      -17.45052
C         50.95623       31.79165      -18.53283
C         50.27962       31.89173      -19.89235
O         49.06953       32.05511      -19.95312
H         48.99282       31.55908      -17.67584
H         51.60886       30.90161      -18.46897
H         51.57373       32.70537      -18.43405
N         50.98360       31.87125      -21.05885
C         52.41731       31.61544      -21.16183
C         52.76248       30.17124      -20.78988
O         51.86860       29.37319      -20.53673
C         52.91908       31.92551      -22.60031
C         52.36044       31.01201      -23.66916
O         53.11486       30.30641      -24.31917
O         51.04231       30.98685      -23.94353
H         50.44835       32.06610      -21.91683
H         52.94747       32.31403      -20.47758
H         54.02682       31.84666      -22.61874
H         52.67092       32.97723      -22.85922
N         54.06107       29.75911      -20.79599
C         54.47627       28.37867      -20.60260
C         54.40550       27.85841      -19.18205
O         54.81800       26.72270      -18.99158
H         54.79573       30.43764      -21.04497
H         55.54687       28.30451      -20.89217
H         53.90015       27.71826      -21.28670
N         53.94391       28.59880      -18.13318
C         53.99087       28.12187      -16.75427
C         52.59168       27.94365      -16.20211
O         51.78589       28.85913      -16.27992
C         54.79161       29.09793      -15.86104
C         56.22946       29.28200      -16.34957
O         54.82591       28.58742      -14.55268
H         53.57429       29.54534      -18.29655
H         54.51594       27.14350      -16.68649
H         54.28497       30.08649      -15.87240
H         54.97598       29.34953      -13.93738
H         56.76205       29.98439      -15.67272
H         56.76646       28.30969      -16.34527
H         56.24497       29.70770      -17.37393
N         52.28129       26.80014      -15.52949
C         51.03623       26.61381      -14.79111
C         51.25090       26.88594      -13.31015
O         50.26586       26.94610      -12.58627
C         50.41468       25.20825      -15.04780
C         51.41023       24.06108      -14.70727
C         49.91840       25.12391      -16.49955
C         50.79621       22.66273      -14.76368
H         53.02672       26.09973      -15.41426
H         50.29770       27.38833      -15.09790
H         49.52304       25.10958      -14.38837
H         51.79645       24.20645      -13.67529
H         52.27108       24.07145      -15.40790
H         50.76329       25.22218      -17.21300
H         49.38963       24.16906      -16.68969
H         49.18934       25.93979      -16.69406
H         51.57185       21.91493      -14.49103
H         49.95665       22.58133      -14.04274
H         50.43966       22.41458      -15.78318
N         52.49474       27.09978      -12.78692
C         52.70050       27.52632      -11.41274
C         52.25768       28.97836      -11.33105
O         52.93614       29.82552      -11.89041
C         54.19142       27.36322      -11.01425
C         54.65500       25.90375      -11.14005
O         54.38013       27.78279       -9.68618
H         53.32280       26.99126      -13.38257
H         52.09463       26.87775      -10.74049
H         54.82324       27.96578      -11.71292
H         54.96539       28.58483       -9.70652
H         55.72945       25.82211      -10.87288
H         54.06491       25.24778      -10.46627
H         54.54404       25.52774      -12.17921
N         51.07754       29.32159      -10.74264
C         50.51708       30.67713      -10.77221
C         50.31270       31.18330       -9.35457
O         50.46534       30.39931       -8.42623
C         49.20160       30.62081      -11.61126
C         48.46501       31.95175      -11.79612
O         48.31422       29.68957      -11.04467
H         50.51406       28.57362      -10.30918
H         51.22500       31.37712      -11.26497
H         49.50877       30.27326      -12.62678
H         47.79357       29.29119      -11.79133
H         47.61063       31.80920      -12.49217
H         48.04038       32.31206      -10.83786
H         49.13707       32.71701      -12.22812
N         49.97434       32.48676       -9.10445
C         49.67043       32.96750       -7.75902
C         50.59624       34.07783       -7.27243
O         50.51697       34.40354       -6.09659
C         48.17209       33.33198       -7.67830
C         47.75632       34.61556       -8.42028
C         46.22106       34.71468       -8.45975
C         45.74310       36.07822       -8.96750
N         44.29013       36.09254       -9.14690
H         49.88852       33.14309       -9.89337
H         49.81284       32.13266       -7.04080
H         47.87702       33.45190       -6.61323
H         47.60651       32.46502       -8.08863
H         48.12822       34.62472       -9.46780
H         48.19225       35.48633       -7.88364
H         45.79411       34.56168       -7.44512
H         45.84259       33.90979       -9.12953
H         46.22675       36.30633       -9.93352
H         46.03801       36.86200       -8.23440
H         44.02096       35.42497       -9.90655
H         43.80665       35.82627       -8.25865
H         43.98587       37.05366       -9.42463
N         51.48800       34.71034       -8.09370
C         52.41533       35.73786       -7.62602
C         51.93338       37.10920       -8.05337
O         51.78540       37.36105       -9.24091
C         53.83909       35.48483       -8.17404
C         54.63202       34.41292       -7.40928
C         54.03281       33.03596       -7.37420
O         53.73217       32.54465       -6.29833
O         53.87707       32.29633       -8.48675
H         51.49488       34.49449       -9.10065
H         52.47405       35.75201       -6.51622
H         54.43431       36.41671       -8.04016
H         53.80079       35.28023       -9.26532
H         54.74609       34.77157       -6.36222
H         55.64928       34.34250       -7.84779
N         51.69605       38.05978       -7.10099
C         51.27265       39.41369       -7.38806
H         50.30581       39.61014       -6.87890
H         52.03066       40.12221       -6.98987
H         51.15118       39.59915       -8.47460
H         51.83572       37.82509       -6.10634
Ca        54.13149       32.95735      -10.61682
O         56.02051       35.27505      -11.56857
H         55.99787       35.34014      -10.58087
H         55.08793       35.45304      -11.84986
O         57.36734       32.82696       -9.61671
H         57.59422       33.72698       -9.27195
H         57.63294       32.20967       -8.88961

Ca 1.0



