%chk=apoCaM-CA-Ng.loop3.water2.frame924.chk
%nprocshared=20
%mem=10GB
%nosave
#b3lyp/svp scf=(tight,noincore,xqc) Test 
#IOP(5/87=12) Density=Current Pop=(MK,readradii) iop(6/33=2) iop(6/42=6)

apoCaM-CA-Ng.loop3.water2.frame924 

   0  1 
C        -23.26610        7.77045       13.87003
C        -24.42972        6.93419       13.42997
O        -24.39884        6.39574       12.33400
H        -22.48129        7.80127       13.08482
H        -23.60086        8.80308       14.09618
H        -22.82577        7.32111       14.78688
N        -25.49846        6.78143       14.25760
C        -26.61435        5.87531       14.00660
C        -27.88584        6.68447       13.77859
O        -28.04721        7.69553       14.44943
C        -26.72714        4.95722       15.24528
C        -27.57749        3.74424       15.04507
O        -27.79476        2.99945       15.98697
O        -28.04925        3.42309       13.83204
H        -25.50075        7.30697       15.14687
H        -26.41475        5.25273       13.11160
H        -27.11419        5.55374       16.10075
H        -25.72330        4.57242       15.52370
N        -28.83687        6.31105       12.86054
C        -30.01303        7.14257       12.57367
C        -31.29606        6.64155       13.23126
O        -32.27640        7.37278       13.21106
C        -30.19875        7.34136       11.04959
C        -30.78157        6.10625       10.32731
C        -31.01166        6.38856        8.83526
C        -31.81344        5.25723        8.17377
N        -32.04255        5.53558        6.75573
H        -28.72424        5.41827       12.35816
H        -29.83547        8.15009       13.00802
H        -29.23084        7.64570       10.59493
H        -30.91989        8.17492       10.90120
H        -31.76813        5.87245       10.78279
H        -30.12235        5.21921       10.44307
H        -30.03149        6.51655        8.32635
H        -31.59664        7.32752        8.72331
H        -32.79886        5.16335        8.68444
H        -31.27229        4.29215        8.28173
H        -32.61968        4.76695        6.34332
H        -32.55708        6.43911        6.64144
H        -31.12989        5.58719        6.24929
N        -31.37024        5.41810       13.82496
C        -32.54763        4.91805       14.53570
C        -32.17753        4.68190       15.99616
O        -32.86856        5.21283       16.85517
C        -33.20003        3.72795       13.78242
C        -32.25161        2.64866       13.36935
O        -31.95609        2.52278       12.19083
O        -31.64518        1.87758       14.27651
H        -30.54681        4.80389       13.77955
H        -33.35705        5.68319       14.55164
H        -33.61750        4.15569       12.84321
H        -34.04903        3.30381       14.35952
N        -31.03476        4.02279       16.35265
C        -30.53571        3.97103       17.72039
C        -30.18750        2.57882       18.19904
O        -29.67440        2.48196       19.30511
H        -30.42525        3.63621       15.62226
H        -31.24815        4.42936       18.44072
H        -29.59993        4.56994       17.75368
N        -30.43362        1.45874       17.45653
C        -30.10701        0.11137       17.91548
C        -29.27921       -0.66019       16.89539
O        -29.12301       -0.22726       15.76436
C        -31.41860       -0.66519       18.14601
C        -32.27199       -0.03109       19.21362
N        -33.50651        0.44242       18.92352
O        -31.84672        0.04689       20.35647
H        -30.91301        1.54772       16.55443
H        -29.52949        0.15142       18.86557
H        -31.20475       -1.70934       18.45777
H        -31.97721       -0.70638       17.18354
H        -33.88397        0.38922       17.96609
H        -34.08895        0.86703       19.66023
N        -28.75647       -1.86687       17.25200
C        -28.14687       -2.82622       16.34331
C        -26.98501       -2.30161       15.53308
O        -26.04955       -1.75493       16.10050
H        -28.85282       -2.16414       18.23542
H        -28.93084       -3.21758       15.66163
H        -27.78016       -3.68275       16.94928
N        -26.95306       -2.52170       14.18241
C        -25.83552       -2.12762       13.32819
C        -25.71776       -0.61801       13.22446
O        -26.52121        0.09020       13.81279
C        -25.97829       -2.72932       11.90218
C        -25.93287       -4.23997       11.84085
C        -26.91997       -4.94930       11.13458
C        -24.87134       -4.95307       12.42886
C        -26.83934       -6.34088       11.01031
C        -24.80373       -6.34415       12.31896
C        -25.77949       -7.04245       11.60301
O        -25.68139       -8.38185       11.48243
H        -27.73115       -3.04523       13.75328
H        -24.89328       -2.50699       13.77504
H        -25.12253       -2.40144       11.28093
H        -26.90098       -2.33834       11.41759
H        -27.73667       -4.42564       10.65351
H        -24.08791       -4.43996       12.96917
H        -27.59465       -6.87146       10.44428
H        -23.98163       -6.87803       12.77917
H        -26.31938       -8.90181       10.97345
N        -24.70736       -0.06748       12.48001
C        -24.46245        1.35893       12.29554
C        -25.63333        2.01599       11.56790
O        -26.74455        1.95257       12.06626
C        -24.13699        2.05050       13.65381
C        -23.70154        3.52306       13.46750
C        -23.07523        1.27158       14.45319
C        -22.37391        3.74005       12.72819
H        -24.03423       -0.69784       12.02175
H        -23.55948        1.44654       11.65569
H        -25.05965        2.06431       14.27321
H        -23.60844        3.99938       14.46703
H        -24.50107        4.04271       12.91414
H        -22.13226        1.16730       13.87826
H        -22.86434        1.78812       15.41352
H        -23.43783        0.25206       14.69937
H        -21.52952        3.28227       13.28260
H        -22.40359        3.33443       11.69794
H        -22.16889        4.82819       12.65470
N        -25.46213        2.68490       10.39006
C        -26.57287        3.31270        9.67079
C        -26.66888        2.77246        8.24779
O        -25.77615        2.05482        7.81653
C        -26.38324        4.83916        9.70344
O        -27.47233        5.49797        9.11987
H        -24.51120        2.77486        9.99944
H        -27.53669        3.08481       10.17673
H        -25.44531        5.11517        9.17382
H        -26.30877        5.14697       10.76943
H        -27.34927        6.46373        9.31268
N        -27.74516        3.07612        7.46407
C        -27.91871        2.62004        6.08266
C        -29.20277        3.23319        5.51626
O        -30.25095        2.99893        6.10177
C        -27.99669        1.08929        5.99141
H        -28.47952        3.67503        7.87280
H        -27.03014        2.93274        5.50402
H        -28.11313        0.78648        4.92882
H        -27.06787        0.61183        6.36176
H        -28.85428        0.69855        6.57719
N        -29.23830        4.05747        4.42436
C        -28.09214        4.32106        3.56345
C        -27.82658        3.08985        2.70028
O        -28.72290        2.26494        2.58113
C        -28.36947        5.53146        2.66222
H        -30.14361        4.48828        4.17677
H        -27.23259        4.59796        4.20481
H        -29.24893        5.34602        2.00958
H        -28.57638        6.42249        3.29365
H        -27.49476        5.76336        2.02040
N        -26.64837        2.84477        2.06085
C        -25.44341        3.65118        2.15979
C        -24.40675        2.83741        2.90787
O        -23.95206        3.27933        3.95422
C        -24.98377        4.07376        0.75091
C        -23.77692        5.02267        0.79535
C        -23.40071        5.48046       -0.58465
O        -23.44929        6.78990       -0.89692
O        -23.04398        4.67234       -1.42724
H        -26.58936        1.97708        1.50399
H        -25.62662        4.57927        2.73449
H        -25.82612        4.60969        0.25935
H        -24.74231        3.17648        0.13946
H        -22.90332        4.51716        1.25934
H        -24.03823        5.91247        1.40921
N        -24.02570        1.60769        2.46142
C        -23.11294        0.76978        3.20719
H        -22.13136        1.27504        3.31715
H        -23.53711        0.55566        4.21253
H        -22.96706       -0.19587        2.67772
H        -24.41582        1.23485        1.58333
Ca       -29.50125        1.74106       13.74305
O        -30.37632       -1.18647       13.09453
H        -31.04539       -1.02641       13.80676
H        -29.95971       -2.05086       13.33674
O        -29.06751        0.81683       10.77252
H        -28.40887        0.49799       10.10527
H        -29.94321        0.51079       10.42803

Ca 1.0



