%chk=apoCaM-CA-Ng.loop1.water3.frame773.chk
%nprocshared=20
%mem=10GB
%nosave
#b3lyp/svp scf=(tight,noincore,xqc) Test 
#IOP(5/87=12) Density=Current Pop=(MK,readradii) iop(6/33=2) iop(6/42=6)

apoCaM-CA-Ng.loop1.water3.frame773 

   0  1 
C         62.71274      110.17566       -5.56306
C         64.04069      110.87643       -5.58088
O         64.26747      111.71468       -6.44141
H         62.06120      110.53066       -6.38965
H         62.85841      109.08023       -5.65667
H         62.20057      110.39040       -4.59938
N         64.95094      110.60793       -4.60546
C         66.21136      111.32458       -4.44166
C         67.38614      110.35928       -4.32176
O         67.40924      109.56184       -3.39984
C         66.10415      112.30271       -3.22997
C         64.91017      112.09193       -2.29767
O         64.79517      111.04637       -1.44943
O         64.00808      112.91427       -2.31374
H         64.69438      109.91680       -3.88324
H         66.42007      111.95769       -5.33405
H         65.92094      113.30146       -3.68804
H         67.07013      112.40847       -2.68999
N         68.40313      110.36318       -5.23898
C         69.54647      109.45620       -5.14208
C         70.50368      109.89589       -4.04165
O         71.07646      110.97275       -4.13853
C         70.29942      109.36118       -6.48939
C         71.46768      108.35170       -6.41818
C         72.13360      108.07438       -7.77404
C         72.78620      109.31267       -8.40583
N         73.44507      108.96231       -9.66418
H         68.34023      110.99612       -6.05158
H         69.15733      108.43263       -4.94280
H         70.67695      110.36389       -6.78301
H         69.57731      109.01598       -7.26160
H         71.07522      107.38049       -6.04460
H         72.23877      108.70837       -5.70060
H         71.37866      107.65365       -8.47303
H         72.92094      107.30521       -7.61105
H         73.53788      109.73745       -7.70405
H         72.01550      110.08591       -8.61058
H         74.20397      108.26351       -9.49101
H         72.74866      108.56561      -10.33659
H         73.86641      109.82263      -10.08287
N         70.74781      109.07657       -2.98178
C         71.72025      109.36575       -1.92395
C         72.43100      108.09372       -1.46384
O         72.03115      107.01132       -1.86869
C         71.02284      110.09543       -0.75351
C         69.70421      109.48687       -0.41796
O         68.63017      110.24034       -0.67459
O         69.59524      108.34031       -0.01413
H         70.20294      108.20603       -2.91772
H         72.51672      110.02152       -2.33932
H         70.82240      111.13353       -1.10038
H         71.62885      110.17278        0.16813
N         73.52650      108.11662       -0.64325
C         74.16487      109.31640       -0.13753
C         75.53613      109.47441       -0.71467
O         75.66030      109.51888       -1.93175
H         73.96424      107.22532       -0.37570
H         74.17922      109.28807        0.97303
H         73.64708      110.23809       -0.44102
N         76.60627      109.68228        0.09914
C         77.89778      110.07812       -0.44459
C         78.59978      108.92998       -1.15200
O         79.50855      109.20393       -1.92368
C         78.82100      110.68432        0.63393
C         78.21528      111.89014        1.31637
O         78.74713      112.98319        1.20927
O         77.10830      111.77262        2.07536
H         76.45856      109.67353        1.11825
H         77.70678      110.88724       -1.18785
H         79.76488      111.00340        0.13811
H         79.07141      109.92131        1.40109
N         78.27598      107.62468       -0.90374
C         78.95191      106.50077       -1.53717
C         78.00744      105.54781       -2.24713
O         78.50574      104.58149       -2.80744
H         77.55994      107.40724       -0.19583
H         79.49471      105.93139       -0.75375
H         79.70408      106.85066       -2.27759
N         76.65309      105.73604       -2.28178
C         75.73233      104.85156       -2.99517
C         74.71376      104.28926       -2.01965
O         74.01738      105.07100       -1.39393
C         75.01678      105.64937       -4.10873
C         76.01684      106.28534       -5.07866
O         74.16690      104.80072       -4.83714
H         76.24089      106.55445       -1.81178
H         76.28194      104.01079       -3.47394
H         74.43091      106.48778       -3.66046
H         73.30761      104.75428       -4.34230
H         76.64331      105.50517       -5.56070
H         75.47026      106.84766       -5.86467
H         76.68005      107.00183       -4.54756
N         74.58231      102.94735       -1.81261
C         73.67622      102.39165       -0.80508
C         74.46908      101.93304        0.41046
O         73.85638      101.69510        1.44156
C         72.76116      101.29523       -1.43348
C         71.88131      101.86632       -2.57951
C         71.88091      100.56337       -0.39976
C         70.85600      102.92453       -2.14709
H         75.19152      102.30013       -2.33739
H         73.03079      103.19454       -0.39233
H         73.42215      100.52118       -1.88368
H         71.32509      101.02657       -3.05084
H         72.53397      102.30860       -3.36174
H         72.50508      100.00315        0.32567
H         71.23591      101.27030        0.16136
H         71.24075       99.80961       -0.90568
H         70.14090      102.51274       -1.40561
H         71.34942      103.82114       -1.72206
H         70.27038      103.25090       -3.03150
N         75.83353      101.87721        0.40021
C         76.62301      101.64250        1.59950
C         77.40433      100.34820        1.50241
O         77.39018       99.69217        0.47129
C         77.51439      102.88222        1.88619
C         78.49173      103.21367        0.75004
O         76.69874      104.00581        2.09989
H         76.34815      102.03724       -0.47279
H         75.95491      101.51218        2.47854
H         78.12878      102.70084        2.79692
H         76.29574      103.90331        3.00158
H         79.11047      104.08982        1.03626
H         79.16393      102.35628        0.54139
H         77.95351      103.48983       -0.17961
N         78.04866       99.89140        2.61171
C         78.72382       98.60356        2.69795
C         77.95263       97.72349        3.66758
O         77.54542       96.63564        3.27782
C         80.20322       98.80329        3.10341
C         80.95959       97.46961        3.14608
O         80.29449       99.44039        4.35139
H         78.00508      100.46867        3.46344
H         78.72715       98.09629        1.70687
H         80.66788       99.44827        2.32062
H         81.20208       99.83883        4.40693
H         80.53234       96.79709        3.92027
H         80.90526       96.96526        2.15771
H         82.02800       97.65000        3.38837
N         77.66257       98.15236        4.92916
C         76.85623       97.37546        5.86659
C         76.12941       98.27637        6.85932
O         76.41384       99.46718        6.92202
C         77.73705       96.29662        6.53770
C         78.90931       96.91608        7.32472
C         79.91575       95.85418        7.78642
C         81.09260       96.50814        8.52819
N         82.11057       95.51944        8.88230
H         77.97609       99.09300        5.20669
H         76.03962       96.88587        5.28902
H         78.15113       95.65270        5.73138
H         77.13037       95.65085        7.20887
H         78.51429       97.47966        8.19809
H         79.46055       97.62257        6.66749
H         80.30865       95.32571        6.88962
H         79.41880       95.11317        8.44942
H         80.71930       97.00537        9.45106
H         81.55918       97.28252        7.87851
H         81.70239       94.78263        9.50148
H         82.49754       95.07954        8.01542
H         82.88983       95.99821        9.38968
N         75.11038       97.78592        7.62102
C         74.31361       98.63425        8.50405
C         73.68464       99.80189        7.73203
O         73.99098      100.93024        8.08962
C         73.28247       97.80131        9.30267
C         72.39633       98.68292       10.20001
C         71.47976       97.85579       11.05320
O         71.54527       97.94870       12.39515
O         70.66163       97.10969       10.53893
H         74.87360       96.78345        7.54179
H         74.99872       99.07296        9.26601
H         73.84556       97.08232        9.93791
H         72.63917       97.19992        8.63540
H         71.77486       99.35755        9.57148
H         73.03906       99.30658       10.85784
N         72.83591       99.67581        6.66906
C         72.38568       98.42769        6.09618
H         71.74151       98.63786        5.21547
H         73.24797       97.82121        5.75368
H         71.76306       97.86747        6.81541
H         72.49733      100.54137        6.21908
Ca        66.49482      109.72323       -0.90522
O         65.85859      110.22884        1.87424
H         65.96291      109.29035        2.17207
H         64.97664      110.24893        1.42391
O         68.17923      106.55971       -2.39920
H         68.50632      106.42813       -3.32421
H         68.96257      106.35568       -1.82872
O         67.00946      106.53403        0.41048
H         66.50897      106.47614        1.26251
H         67.65672      105.78552        0.45083

Ca 1.0



