%chk=apoCaM-CA-Ng.loop3.water5.frame1079.chk
%nprocshared=20
%mem=10GB
%nosave
#b3lyp/svp scf=(tight,noincore,xqc) Test 
#IOP(5/87=12) Density=Current Pop=(MK,readradii) iop(6/33=2) iop(6/42=6)

apoCaM-CA-Ng.loop3.water5.frame1079 

   0  1 
C         38.97946       78.52618       11.98585
C         38.99425       79.75179       11.12307
O         38.54916       80.79523       11.58006
H         37.93150       78.29145       12.26947
H         39.40496       77.64972       11.45397
H         39.57347       78.71101       12.90462
N         39.48151       79.70162        9.85038
C         39.47703       80.85774        8.96224
C         38.07162       81.41821        8.79485
O         37.91193       82.62203        8.93547
C         40.19619       80.57652        7.61581
C         39.69605       79.44137        6.75575
O         38.67797       78.64956        7.13293
O         40.25822       79.21350        5.69652
H         39.85940       78.80780        9.50126
H         40.08942       81.66203        9.43128
H         41.26203       80.35513        7.84499
H         40.17220       81.50946        7.01019
N         36.98997       80.60404        8.62888
C         35.62463       81.11123        8.54359
C         35.39697       81.76417        7.19359
O         35.63374       81.13701        6.17025
C         34.59388       79.99850        8.82701
C         34.74119       79.50568       10.28588
C         33.68694       78.48537       10.73724
C         32.25902       79.05698       10.73368
N         31.31714       78.11337       11.33433
H         37.13108       79.58572        8.64082
H         35.46273       81.86422        9.34780
H         34.70218       79.15462        8.11107
H         33.58586       80.44535        8.69982
H         34.68250       80.37658       10.97618
H         35.74130       79.04018       10.41710
H         33.94229       78.20118       11.78233
H         33.73778       77.57208       10.10660
H         31.93910       79.27549        9.69271
H         32.23545       80.00462       11.31714
H         31.32448       77.20923       10.80940
H         31.57183       77.94377       12.33493
H         30.35508       78.52161       11.29922
N         34.93825       83.04704        7.12886
C         34.78173       83.79465        5.87837
C         36.12964       84.19273        5.26393
O         36.13684       84.79922        4.20201
C         33.91609       85.05296        6.12935
C         34.51415       85.97149        7.15755
O         35.59194       86.51093        6.96367
O         33.87147       86.17298        8.32010
H         34.68057       83.50476        8.01637
H         34.22101       83.16447        5.15349
H         32.92162       84.71562        6.49705
H         33.75250       85.61415        5.18470
N         37.30410       83.92556        5.90177
C         38.62236       84.33261        5.45157
C         39.07382       83.66798        4.17074
O         38.28739       82.97106        3.54569
H         37.28406       83.44236        6.80133
H         39.33108       84.00431        6.23593
H         38.67241       85.43837        5.36241
N         40.36236       83.77197        3.72429
C         41.42681       84.51460        4.39776
C         42.41354       83.52828        5.01856
O         42.92149       82.68003        4.29917
C         42.13120       85.46212        3.40353
C         43.28056       86.21249        4.05104
N         43.24183       87.55561        4.20450
O         44.26257       85.59660        4.43988
H         40.62045       83.23846        2.87873
H         41.00660       85.17286        5.17599
H         41.37370       86.18278        3.02530
H         42.52751       84.89546        2.53328
H         42.42778       88.10336        3.89342
H         44.03011       88.04873        4.65118
N         42.77697       83.58208        6.33698
C         42.26161       84.58280        7.25789
C         42.82456       84.45188        8.64627
O         42.68804       83.39102        9.24184
H         43.46308       82.89216        6.68262
H         41.16682       84.46384        7.34953
H         42.48472       85.59849        6.86453
N         43.40603       85.52680        9.25501
C         43.86336       85.51583       10.63857
C         43.00724       86.47659       11.45926
O         42.20889       87.20869       10.88237
C         45.35535       85.92792       10.67101
C         46.01152       85.71531       12.01244
C         46.47192       86.80165       12.77652
C         46.17917       84.41051       12.50472
C         47.08015       86.58213       14.01768
C         46.79294       84.19350       13.74008
C         47.24332       85.27955       14.50313
O         47.83290       85.08308       15.69961
H         43.47976       86.41544        8.73258
H         43.74220       84.49542       11.06165
H         45.42744       86.99381       10.35676
H         45.92849       85.32838        9.93040
H         46.35300       87.81678       12.41921
H         45.84160       83.55999       11.92577
H         47.42335       87.42512       14.60422
H         46.91819       83.18061       14.10139
H         47.96493       84.19753       16.06791
N         43.10110       86.52177       12.81676
C         42.33679       87.47245       13.63300
C         42.75243       88.91123       13.31533
O         43.68157       89.10987       12.54805
C         42.45333       87.14783       15.15941
C         41.76823       85.78630       15.45392
C         43.90889       87.19511       15.67061
C         41.73321       85.40889       16.93562
H         43.71891       85.83965       13.27601
H         41.26222       87.38063       13.35886
H         41.88345       87.91996       15.71966
H         42.26381       84.96441       14.89540
H         40.71294       85.84976       15.10696
H         44.52497       86.38492       15.23506
H         44.37640       88.17281       15.43359
H         43.94072       87.08068       16.77318
H         42.75554       85.22925       17.32597
H         41.24015       86.20644       17.53028
H         41.15737       84.46696       17.05930
N         42.08522       89.96868       13.87351
C         42.42168       91.36293       13.58146
C         41.21760       92.13405       13.04549
O         40.12188       91.60015       12.98231
C         42.99777       92.02186       14.84305
O         42.05620       92.00544       15.88041
H         41.31890       89.78435       14.53549
H         43.20878       91.41331       12.79867
H         43.29973       93.07061       14.63149
H         43.90615       91.44807       15.14081
H         42.56100       92.19808       16.71308
N         41.39352       93.41921       12.61328
C         40.36793       94.28949       12.04240
C         39.27767       94.65822       13.03605
O         38.11798       94.72294       12.64624
C         39.79975       93.69828       10.73877
H         42.34208       93.81737       12.66556
H         40.87184       95.24609       11.78034
H         40.62178       93.48158       10.02561
H         39.24265       92.75750       10.93526
H         39.10063       94.41532       10.25741
N         39.57502       94.92375       14.34671
C         38.58879       95.34276       15.34702
C         37.43735       94.35357       15.53643
O         36.50633       94.67726       16.26083
C         38.04696       96.73463       14.98383
H         40.55382       94.83378       14.65861
H         39.09949       95.45290       16.32922
H         37.36747       97.10452       15.78177
H         38.88981       97.45288       14.89659
H         37.48526       96.72363       14.02774
N         37.41504       93.14364       14.90769
C         36.27438       92.24286       14.93839
C         35.99361       91.76878       16.34580
O         34.88611       91.97500       16.82333
C         36.52235       91.08563       13.95099
C         35.30792       90.16941       13.80458
C         35.48922       89.27444       12.61963
O         34.71609       89.36414       11.68137
O         36.51634       88.40447       12.56252
H         38.22256       92.85211       14.34622
H         35.38569       92.79508       14.55392
H         37.42182       90.49323       14.23126
H         36.71587       91.55532       12.95839
H         34.40105       90.79008       13.63277
H         35.15747       89.56686       14.72529
N         36.96079       91.15265       17.07850
C         36.75874       90.70714       18.44244
H         35.72374       90.89195       18.80127
H         36.96198       89.61890       18.50854
H         37.45877       91.24954       19.11177
H         37.89351       91.01139       16.66229
Ca        34.93749       87.35015        9.89652
O         36.65753       90.02653        8.99672
H         36.00912       90.77473        9.01229
H         37.25101       90.19672        9.77083
O         33.54722       89.43293        8.22819
H         33.28249       89.46256        7.27481
H         32.97254       90.10710        8.67016
O         32.02333       87.71066       11.04835
H         32.13860       88.40517       11.74453
H         32.14608       86.85439       11.53020
O         37.87234       86.91998        9.44590
H         37.41635       86.04188        9.49021
H         38.75484       86.76337        9.86579
O         34.93229       85.55594       12.23397
H         34.72001       84.61558       12.00859
H         35.40401       85.50674       13.10279

Ca 1.0



