%chk=apoCaM-CA-Ng.loop3.water5.frame1107.chk
%nprocshared=20
%mem=10GB
%nosave
#b3lyp/svp scf=(tight,noincore,xqc) Test 
#IOP(5/87=12) Density=Current Pop=(MK,readradii) iop(6/33=2) iop(6/42=6)

apoCaM-CA-Ng.loop3.water5.frame1107 

   0  1 
C         46.64897       14.65762       39.14211
C         47.42840       15.93338       39.26353
O         46.82987       16.95727       39.53639
H         45.86859       14.77704       38.36180
H         47.30395       13.80668       38.86104
H         46.16002       14.42621       40.11177
N         48.77612       15.94891       39.08664
C         49.58900       17.15317       39.25506
C         50.81707       17.17534       38.34503
O         51.63006       18.07814       38.49187
C         49.94507       17.34271       40.74794
C         50.72867       16.22264       41.38072
O         51.03685       15.22424       40.75288
O         51.07985       16.31889       42.67633
H         49.24363       15.04315       38.93940
H         48.99804       18.05308       38.96904
H         49.00066       17.45773       41.32247
H         50.52062       18.28693       40.86330
N         50.99697       16.25681       37.34691
C         52.12753       16.24250       36.42595
C         52.14678       17.47414       35.52933
O         53.15177       17.71049       34.87342
C         53.47664       16.00484       37.15446
C         53.44092       14.89490       38.22849
C         52.79659       13.56863       37.77563
C         52.68878       12.54065       38.91657
N         53.98835       11.99235       39.30096
H         50.29030       15.53050       37.18143
H         52.00270       15.37382       35.74201
H         53.81780       16.93410       37.66020
H         54.23787       15.74838       36.38420
H         52.85740       15.28077       39.08548
H         54.47998       14.72973       38.58194
H         53.33603       13.13294       36.90875
H         51.75446       13.77243       37.46280
H         52.04302       11.70222       38.57362
H         52.19179       13.00206       39.79907
H         54.41769       11.50289       38.48247
H         54.62753       12.74123       39.64688
H         53.84567       11.29699       40.06890
N         51.03906       18.26973       35.40785
C         50.97396       19.44600       34.55084
C         50.65752       20.70131       35.35556
O         50.70093       21.77722       34.77285
C         49.82783       19.28674       33.52198
C         49.77113       17.96365       32.81249
O         49.63012       16.93332       33.45218
O         49.71766       17.90782       31.47172
H         50.17670       18.01126       35.90499
H         51.94422       19.58510       34.02490
H         49.86785       20.11859       32.78358
H         48.85986       19.36394       34.06534
N         50.21885       20.64125       36.65220
C         49.71366       21.79351       37.36937
C         50.42422       21.97794       38.68980
O         51.63504       22.14402       38.64899
H         50.13341       19.74317       37.14126
H         48.62866       21.65506       37.47809
H         49.84803       22.72489       36.78069
N         49.80026       22.03639       39.90947
C         48.37133       21.87256       40.20238
C         48.19279       20.87354       41.34124
O         48.94963       20.94741       42.29918
C         47.75453       23.21615       40.64722
C         47.70910       24.27385       39.56567
N         47.10935       25.45955       39.81225
O         48.18753       24.06861       38.46194
H         50.40459       22.25745       40.71746
H         47.78369       21.54204       39.33494
H         48.29917       23.61577       41.52993
H         46.69981       23.02474       40.94555
H         46.68172       25.65153       40.72933
H         47.05994       26.18132       39.07766
N         47.17903       19.96049       41.38875
C         46.13720       19.83378       40.37561
C         45.07499       18.81298       40.75050
O         45.15041       18.22083       41.82092
H         47.14348       19.36197       42.22885
H         46.59961       19.53767       39.41060
H         45.62653       20.81248       40.24825
N         44.03758       18.55621       39.90080
C         42.97550       17.60205       40.21513
C         42.89686       16.49679       39.16874
O         43.47891       16.62845       38.09890
C         41.64292       18.37788       40.30719
C         40.49159       17.56970       40.85180
C         39.35514       17.31744       40.06561
C         40.53613       17.08310       42.16929
C         38.28413       16.58561       40.58866
C         39.46378       16.35577       42.69093
C         38.33282       16.10466       41.90162
O         37.28873       15.40881       42.39477
H         43.98820       19.07365       39.00810
H         43.18886       17.12311       41.19444
H         41.40336       18.78023       39.29723
H         41.77471       19.24866       40.98612
H         39.29567       17.68665       39.04947
H         41.39759       17.27540       42.79635
H         37.41289       16.39668       39.97427
H         39.51196       15.99271       43.70978
H         37.28046       15.06780       43.30069
N         42.20442       15.35235       39.43264
C         42.03773       14.27309       38.46155
C         41.17776       14.71499       37.29218
O         40.17830       15.38825       37.50410
C         41.43784       12.96779       39.08384
C         42.47001       12.30024       40.02578
C         40.07161       13.17949       39.77880
C         42.06761       10.88890       40.46396
H         41.80527       15.24224       40.37429
H         43.03709       13.98724       38.06279
H         41.28042       12.26045       38.23734
H         42.65445       12.93423       40.91892
H         43.42984       12.19150       39.47399
H         40.16029       13.81993       40.67949
H         39.33455       13.63485       39.08907
H         39.63741       12.21165       40.09935
H         42.88604       10.44180       41.06628
H         41.15307       10.89854       41.08912
H         41.89845       10.24446       39.57383
N         41.44780       14.24774       36.03776
C         40.56333       14.46826       34.89944
C         41.28836       15.07202       33.71024
O         42.50140       15.22580       33.73223
C         39.94309       13.11663       34.49500
O         40.94801       12.22520       34.08948
H         42.26820       13.63654       35.90216
H         39.73531       15.15586       35.17880
H         39.21531       13.26309       33.66632
H         39.40050       12.69177       35.36825
H         40.48429       11.42619       33.72764
N         40.56129       15.39935       32.60458
C         41.09785       15.85573       31.33138
C         41.94998       14.77704       30.67929
O         43.00073       15.07450       30.12995
C         41.79692       17.21713       31.45717
H         39.53763       15.27686       32.64453
H         40.22662       15.99885       30.65337
H         41.09418       17.95964       31.89216
H         42.69535       17.15380       32.10460
H         42.10938       17.58177       30.45547
N         41.51684       13.48188       30.69021
C         42.15758       12.37113       29.99678
C         43.62860       12.21818       30.35087
O         44.46464       12.19435       29.45607
C         41.93088       12.51541       28.48552
H         40.65600       13.25806       31.21222
H         41.64168       11.43525       30.30725
H         42.33687       11.63180       27.94867
H         40.84108       12.57661       28.27771
H         42.41871       13.43293       28.09434
N         44.02362       12.10899       31.64935
C         45.42469       11.93896       32.01635
C         45.90723       10.57213       31.56181
O         46.86111       10.49518       30.79988
C         45.61413       12.12671       33.53843
C         47.09294       12.18652       33.96744
C         47.81167       13.35818       33.35037
O         47.37222       14.61301       33.56853
O         48.79639       13.17844       32.65231
H         43.31016       12.17774       32.39133
H         46.01102       12.74222       31.51968
H         45.10074       11.30947       34.08902
H         45.13800       13.08510       33.84165
H         47.60623       11.23680       33.70175
H         47.13761       12.30493       35.07095
N         45.26565        9.44413       31.97903
C         45.66773        8.11849       31.56016
H         46.70194        7.90652       31.90365
H         44.98470        7.36006       32.00064
H         45.61689        8.03525       30.45353
H         44.44942        9.52698       32.60372
Ca        49.01366       15.92866       30.64269
O         49.14151       16.84239       27.90222
H         49.77324       17.50109       28.28690
H         48.26697       17.30671       27.90469
O         46.13421       15.21437       29.75906
H         46.26454       14.24557       29.60673
H         45.57147       15.26211       30.57164
O         46.46274       17.64264       31.97223
H         45.85498       17.01261       32.43493
H         45.86270       18.21281       31.42889
O         48.76007       13.13466       29.51200
H         49.09184       12.32272       29.97059
H         48.87820       12.94419       28.54792
O         51.65994       14.78698       30.47088
H         52.08414       15.65746       30.67806
H         51.56490       14.78533       29.48510

Ca 1.0



