%chk=apoCaM-CA-Ng.loop4.water3.frame53.chk
%nprocshared=20
%mem=10GB
%nosave
#b3lyp/svp scf=(tight,noincore,xqc) Test 
#IOP(5/87=12) Density=Current Pop=(MK,readradii) iop(6/33=2) iop(6/42=6)

apoCaM-CA-Ng.loop4.water3.frame53 

   -3  1 
C         36.73598       53.15488       59.68654
C         35.58522       52.79132       58.79675
O         35.20289       53.61596       57.98307
H         37.62494       53.37978       59.05882
H         36.47721       54.05346       60.28375
H         36.99498       52.32588       60.37737
N         34.99977       51.56155       58.88372
C         33.92937       51.08506       58.01320
C         34.40624       50.90065       56.52681
O         34.81586       52.08197       55.90589
C         32.52174       51.69429       58.35088
C         32.33306       53.16137       58.71749
O         32.41917       54.14517       57.80812
O         32.00482       53.45230       59.85770
H         35.36417       50.89533       59.58171
H         33.73888       50.02226       58.28996
H         32.20923       51.16082       59.27895
H         31.78768       51.39255       57.57328
N         35.52864       49.93668       56.51541
C         36.12375       49.52716       55.22140
C         35.15632       48.71681       54.37020
O         35.44095       47.55288       54.12068
C         36.81910       50.68375       54.43835
C         37.53672       50.18391       53.15552
C         37.80730       51.43976       55.35270
C         38.61772       49.12331       53.39071
H         35.23291       49.05884       57.00446
H         36.94609       48.83690       55.50809
H         36.06206       51.40772       54.07722
H         38.00055       51.05685       52.64457
H         36.78656       49.75657       52.45713
H         38.59185       50.76474       55.75079
H         38.29303       52.26599       54.79528
H         37.28918       51.88806       56.22465
H         39.06557       48.83618       52.41905
H         39.41634       49.51005       54.05420
H         38.19892       48.19712       53.82831
N         33.98776       49.24269       53.90970
C         33.03020       48.45279       53.14653
C         33.56439       48.07823       51.76216
O         33.64336       46.88146       51.52126
C         31.64158       49.11481       53.13690
C         31.06201       49.14144       54.53078
O         30.86170       47.98955       55.20181
O         30.76447       50.19922       55.05863
H         33.74260       50.21205       54.15398
H         32.86502       47.49045       53.68728
H         30.95142       48.51407       52.50524
H         31.69911       50.14530       52.74316
N         34.00219       48.94375       50.79475
C         34.07616       50.39373       50.85233
C         32.77282       51.07181       50.48725
O         31.77238       50.38641       50.33065
H         34.40438       48.51751       49.94438
H         34.78209       50.70529       50.05779
H         34.49996       50.72357       51.81916
N         32.68014       52.42059       50.27245
C         33.80721       53.36181       50.27574
C         34.55210       53.37524       51.59951
O         33.94134       53.06254       52.61262
C         33.33498       54.79241       49.87853
C         32.31555       55.41896       50.80315
O         31.21724       54.91178       50.96453
O         32.58913       56.59226       51.40343
H         31.74723       52.77688       50.01830
H         34.51513       53.02029       49.49391
H         32.89338       54.75255       48.86042
H         34.20364       55.47669       49.82988
N         35.86856       53.73159       51.71678
C         36.76741       54.15857       50.64607
C         37.34921       53.02748       49.82651
O         36.97872       51.87882       50.01389
H         36.26450       53.73782       52.66739
H         37.64326       54.64423       51.12693
H         36.29880       54.92098       49.99830
N         38.34988       53.30062       48.93383
C         39.02601       52.27816       48.13882
C         40.41701       51.96568       48.68930
O         41.07048       51.09377       48.13009
C         39.14283       52.72194       46.65966
C         37.82458       53.16315       46.00398
C         36.76044       52.09849       46.03125
N         35.56583       52.33935       46.62121
O         36.97048       51.01622       45.50425
H         38.69024       54.27195       48.85784
H         38.45109       51.32732       48.17921
H         39.57899       51.88679       46.06656
H         39.84448       53.58328       46.59197
H         38.03310       53.42738       44.94402
H         37.45889       54.08232       46.50940
H         35.36674       53.25114       47.05885
H         34.83149       51.61677       46.63357
N         40.92705       52.59993       49.78956
C         42.22830       52.28143       50.38161
C         43.18432       53.46122       50.38784
O         44.31810       53.26858       50.80447
C         42.05934       51.73100       51.82089
C         41.33848       50.38581       51.78703
C         41.32585       52.71117       52.75558
H         40.36509       53.32723       50.25144
H         42.74220       51.49623       49.78252
H         43.07048       51.54123       52.24540
H         41.29375       49.96629       52.81135
H         40.31353       50.50516       51.37762
H         41.89634       49.66548       51.15140
H         41.85302       53.68793       52.79363
H         40.28169       52.87916       52.42142
H         41.28472       52.30035       53.78579
N         42.83274       54.68760       49.90753
C         43.78144       55.78465       49.79884
C         43.30396       57.05204       50.49217
O         44.07211       57.56841       51.29446
C         44.21334       55.96852       48.32383
C         43.15420       56.13402       47.25777
N         43.53241       56.17966       45.96024
O         41.96815       56.19556       47.53308
H         41.88811       54.83303       49.53412
H         44.74265       55.52292       50.29947
H         44.76461       55.04123       48.04940
H         44.93303       56.81416       48.26020
H         44.52747       56.10841       45.70062
H         42.82932       56.26968       45.21244
N         42.09403       57.63733       50.23825
C         41.74326       58.95440       50.76960
C         40.50542       58.93915       51.64799
O         39.70580       58.01712       51.57499
C         41.49988       59.91539       49.58789
C         42.67165       59.95318       48.63474
C         42.52118       59.50181       47.31133
C         43.92251       60.43108       49.05654
C         43.60410       59.52414       46.42854
C         45.00413       60.45492       48.17045
C         44.84792       59.99983       46.85284
O         45.88216       60.01549       45.98818
H         41.42391       57.17985       49.60805
H         42.57603       59.35166       51.38882
H         41.29161       60.94353       49.95425
H         40.59420       59.56280       49.04371
H         41.56832       59.12390       46.96138
H         44.05986       60.78548       50.06995
H         43.47579       59.16860       45.41360
H         45.96255       60.82667       48.50921
H         46.75853       60.33972       46.23989
N         40.28892       59.99170       52.49358
C         39.09386       60.21733       53.30527
C         38.81046       59.15693       54.35919
O         37.80174       59.29358       55.03939
C         37.85543       60.45555       52.41364
C         38.06579       61.57114       51.37441
C         38.47591       62.87718       52.00035
O         39.54033       63.39301       51.69711
O         37.67796       63.48034       52.90202
H         41.01158       60.72723       52.53803
H         39.25180       61.15892       53.87795
H         36.99936       60.74319       53.06465
H         37.57706       59.52097       51.88290
H         37.11740       61.72409       50.81785
H         38.84055       61.24991       50.64627
N         39.66442       58.12699       54.61862
C         39.42829       57.16488       55.68726
C         40.36374       57.49713       56.82514
O         39.89096       57.75578       57.92396
C         39.59932       55.71423       55.18735
C         38.70876       55.38238       53.97807
C         37.24947       55.60892       54.25275
O         36.62639       54.92148       55.22868
O         36.61749       56.40556       53.57697
H         40.55303       58.05955       54.10500
H         38.38997       57.25202       56.08062
H         39.35719       55.01854       56.02206
H         40.65469       55.53440       54.88929
H         38.85703       54.31978       53.69837
H         39.02566       56.00100       53.11275
N         41.70602       57.58531       56.61902
C         42.61072       58.02258       57.65772
H         43.64645       58.06897       57.26035
H         42.32235       59.04147       57.99834
H         42.57764       57.32056       58.51583
H         42.09721       57.38181       55.68742
Ca        33.10281       53.47849       55.84608
O         33.23846       56.33509       54.37563
H         33.78158       56.90676       53.77695
H         33.00692       55.54521       53.82576
O         34.32648       56.51359       57.16128
H         34.19083       56.31058       58.12077
H         35.13799       57.08007       57.13869
O         30.94799       53.43972       53.82458
H         30.59401       54.02422       54.54108
H         31.06883       52.56191       54.26349

Ca 1.0



