%chk=apoCaM-CA-Ng.loop1.water3.frame1255.chk
%nprocshared=20
%mem=10GB
%nosave
#b3lyp/svp scf=(tight,noincore,xqc) Test 
#IOP(5/87=12) Density=Current Pop=(MK,readradii) iop(6/33=2) iop(6/42=6)

apoCaM-CA-Ng.loop1.water3.frame1255 

   0  1 
C         21.02486       56.13896      123.62205
C         22.36725       56.74594      123.89890
O         23.10637       57.00262      122.96426
H         20.22801       56.81325      123.99964
H         20.87730       55.98611      122.53142
H         20.94846       55.15731      124.13453
N         22.74154       57.01023      125.18058
C         24.00827       57.63769      125.56714
C         25.25780       56.77191      125.35971
O         26.30325       57.18249      125.84921
C         23.93282       58.11212      127.04062
C         23.81895       57.01706      128.07057
O         23.78738       55.83912      127.75005
O         23.76071       57.34890      129.37367
H         22.04868       56.81264      125.91887
H         24.13629       58.57301      124.97855
H         23.06197       58.79424      127.14837
H         24.84421       58.70662      127.27318
N         25.26569       55.61571      124.62594
C         26.46625       54.80459      124.39174
C         27.66227       55.69542      124.04667
O         28.64842       55.60780      124.76309
C         26.24317       53.69961      123.31284
C         25.13488       52.69198      123.67171
C         24.84198       51.75380      122.49036
C         23.69532       50.78920      122.82375
N         23.34695       49.96551      121.66618
H         24.40184       55.32460      124.16360
H         26.72080       54.28112      125.34078
H         27.19019       53.13503      123.16549
H         25.98903       54.14333      122.33521
H         24.18814       53.21927      123.89851
H         25.43632       52.11212      124.57045
H         25.75353       51.17812      122.21887
H         24.53769       52.37022      121.61467
H         22.79722       51.37157      123.12981
H         23.99586       50.13513      123.67166
H         23.02328       50.57397      120.87871
H         24.17196       49.40103      121.36004
H         22.56873       49.31845      121.92916
N         27.67129       56.63169      123.05062
C         26.59618       56.87283      122.09784
C         25.96371       58.24982      122.25469
O         26.37510       59.02308      123.11064
C         27.12930       56.57895      120.69082
C         28.18773       57.53158      120.23241
O         28.51589       58.62632      120.94379
O         28.66662       57.38359      119.12146
H         28.52203       57.20969      122.96511
H         25.75782       56.18861      122.26786
H         26.29848       56.62212      119.95469
H         27.54228       55.54706      120.67614
N         24.86646       58.56536      121.51234
C         24.03059       59.72935      121.75416
C         24.64177       61.05298      121.37432
O         25.75848       61.11185      120.88706
H         24.51987       57.87764      120.82534
H         23.73130       59.74708      122.82390
H         23.10406       59.62496      121.14805
N         23.88399       62.17389      121.55959
C         24.26745       63.52905      121.14595
C         23.00539       64.34861      120.81658
O         21.91418       63.88645      121.11607
C         25.05657       64.20619      122.28872
C         26.33057       63.48575      122.61844
O         26.51020       62.95873      123.84474
O         27.21315       63.38572      121.78178
H         22.95262       62.02498      121.97442
H         24.86658       63.45858      120.21466
H         24.41186       64.23925      123.19511
H         25.32786       65.24454      122.03308
N         23.00800       65.56317      120.18714
C         24.14037       66.29450      119.64814
C         24.81568       65.56624      118.51380
O         24.13369       65.01720      117.65977
H         22.08780       66.01109      120.04427
H         24.85412       66.60487      120.43447
H         23.74528       67.23694      119.21037
N         26.16989       65.60841      118.39530
C         26.90191       64.98218      117.29870
C         26.79248       63.47445      117.40992
O         27.13845       62.94894      118.46004
C         28.38181       65.44221      117.32355
C         29.16518       64.90238      116.12765
O         29.01558       65.03681      118.51156
H         26.69443       66.15397      119.09646
H         26.47667       65.33383      116.33180
H         28.40716       66.55535      117.23334
H         29.01490       65.81055      119.13308
H         29.17605       63.79587      116.13666
H         28.70372       65.24384      115.17675
H         30.21220       65.27031      116.16712
N         26.33262       62.70831      116.37038
C         26.17578       61.25955      116.48016
C         27.58882       60.67270      116.75825
O         27.56841       59.57048      117.57546
C         24.99768       60.95263      117.49435
C         23.69273       61.55990      116.89724
C         24.76296       59.44747      117.78508
C         22.48617       61.55128      117.83846
H         26.08097       63.16159      115.47954
H         25.83090       60.83427      115.51221
H         25.20267       61.44842      118.46092
H         23.42778       61.02181      115.95978
H         23.86089       62.62336      116.63615
H         25.57325       58.97599      118.36450
H         23.89338       59.29585      118.45096
H         24.59803       58.88215      116.84444
H         21.62961       62.04091      117.32875
H         22.16136       60.52711      118.10382
H         22.72064       62.11974      118.76183
N         28.38118       60.42363      115.52990
C         29.55479       59.53324      115.72427
C         30.73674       60.04656      114.92527
O         31.44644       59.26724      114.30313
C         29.26643       58.01665      115.43583
C         28.87056       57.71359      113.98235
O         28.25383       57.52778      116.27436
H         27.80066       60.13240      114.71557
H         29.89555       59.62330      116.78154
H         30.21786       57.46870      115.64867
H         28.54021       56.63803      116.60936
H         29.64552       58.04290      113.26343
H         28.74435       56.61784      113.85931
H         27.91045       58.19494      113.71272
N         31.05477       61.36572      114.97360
C         32.27757       61.90667      114.40856
C         33.08804       62.39890      115.58221
O         32.71658       63.39346      116.18826
C         31.98410       62.99753      113.35081
C         31.31582       62.38560      112.11010
O         31.15558       63.98970      113.90036
H         30.44286       62.00362      115.50019
H         32.86511       61.10880      113.90391
H         32.95313       63.45003      113.03946
H         31.07826       64.71533      113.22720
H         31.98214       61.62153      111.65537
H         30.34643       61.91116      112.37184
H         31.13063       63.17377      111.34916
N         34.15227       61.66092      116.02088
C         34.93099       61.93420      117.22518
C         34.07446       61.82102      118.47681
O         33.10964       62.55509      118.62244
C         35.65344       63.28735      117.14749
C         36.61022       63.32007      115.94850
C         37.39939       64.63164      115.91159
C         38.35562       64.71975      114.71049
N         39.40262       63.69560      114.74881
H         34.41438       60.81663      115.48920
H         35.72358       61.15541      117.29579
H         36.24546       63.41673      118.08048
H         34.92868       64.12571      117.08118
H         36.03313       63.21232      115.00370
H         37.31079       62.46387      116.04146
H         37.98022       64.74567      116.85295
H         36.67850       65.47524      115.84128
H         38.83655       65.72218      114.73237
H         37.78118       64.63485      113.76146
H         39.92749       63.74774      115.65199
H         38.99717       62.74109      114.62493
H         40.06951       63.86448      113.96178
N         34.39416       60.92263      119.45054
C         33.58002       60.74412      120.64744
C         32.21871       60.15302      120.29833
O         31.23481       60.79956      120.62480
C         34.29953       59.90986      121.73170
C         35.55431       60.63547      122.24544
C         36.22543       59.85178      123.33474
O         37.38008       59.47954      123.20089
O         35.56271       59.57019      124.47307
H         35.25390       60.36372      119.34372
H         33.41230       61.74264      121.11476
H         34.57640       58.90205      121.36578
H         33.60245       59.78015      122.58974
H         35.26896       61.62929      122.65461
H         36.27023       60.79521      121.41099
N         32.02121       58.96218      119.65403
C         33.04418       58.06692      119.15171
H         34.07064       58.42709      119.30827
H         32.94123       57.07799      119.64561
H         32.90459       57.93413      118.05839
H         31.04831       58.66343      119.48821
Ca        28.54485       60.27497      119.48764
O         30.09387       62.26790      118.08801
H         30.76705       61.56049      117.93081
H         30.57795       62.96549      118.59375
O         30.16398       63.62902      121.21872
H         30.92067       63.43714      121.82750
H         29.77008       64.46772      121.56733
O         29.03955       61.03420      123.00969
H         29.01208       61.67980      123.75977
H         28.81881       60.16339      123.42532

Ca 1.0



