%chk=apoCaM-CA-Ng.loop2.water4.frame428.chk
%nprocshared=20
%mem=10GB
%nosave
#b3lyp/svp scf=(tight,noincore,xqc) Test 
#IOP(5/87=12) Density=Current Pop=(MK,readradii) iop(6/33=2) iop(6/42=6)

apoCaM-CA-Ng.loop2.water4.frame428 

   -2  1 
C         94.15395       81.58978       73.25160
C         95.41387       82.20430       72.71301
O         96.48589       81.84938       73.17790
H         93.25416       81.98917       72.73763
H         94.18373       80.48960       73.10853
H         94.06622       81.81416       74.33573
N         95.36166       83.12924       71.71462
C         96.54433       83.78581       71.16586
C         97.18253       84.67788       72.22275
O         96.50301       85.54515       72.75573
C         96.14354       84.61921       69.92606
C         97.30650       85.23821       69.18981
O         98.57745       85.05734       69.59918
O         97.09335       85.90279       68.18882
H         94.43763       83.36625       71.32027
H         97.25684       83.00521       70.81577
H         95.43593       85.42175       70.22845
H         95.62210       83.94916       69.20731
N         98.50103       84.54260       72.54879
C         99.17071       85.41260       73.51578
C         98.76082       85.13792       74.96208
O         99.22633       85.85396       75.83752
C        100.69142       85.25455       73.38933
H         99.06004       83.84139       72.03822
H         98.93264       86.46932       73.25819
H        101.00890       85.48659       72.34983
H        101.21542       85.95858       74.07110
H        100.99882       84.21587       73.63604
N         97.92790       84.10733       75.29468
C         97.52984       83.75086       76.65233
C         98.75152       83.32533       77.45855
O         99.02581       83.87882       78.51490
C         96.69489       84.89123       77.28712
C         96.04919       84.53503       78.60176
O         95.29361       85.45522       79.23009
O         96.18398       83.42830       79.10081
H         97.56191       83.50526       74.55221
H         96.86374       82.86141       76.57719
H         95.87564       85.15738       76.58405
H         97.32525       85.79155       77.43795
N         99.55326       82.33583       76.97256
C        100.77251       81.88541       77.62335
C        100.56219       80.99369       78.83482
O        101.56407       80.55430       79.38220
H         99.33040       81.93090       76.05037
H        101.40470       82.76378       77.88038
H        101.34278       81.27061       76.89351
N         99.32726       80.64944       79.30863
C         99.15710       79.73347       80.43662
C         99.63182       78.33695       80.05231
O         99.12609       77.78455       79.08487
C         97.68042       79.66579       80.87172
C         97.52510       78.80427       82.10442
N         96.80384       77.66013       82.06999
O         98.07127       79.14104       83.14475
H         98.48603       81.04336       78.86374
H         99.73618       80.12970       81.30168
H         97.06917       79.27183       80.03317
H         97.30882       80.68617       81.11023
H         96.34958       77.34541       81.20288
H         96.71282       77.07478       82.91336
N        100.60503       77.70690       80.76701
C        101.12140       76.39484       80.40967
C        100.10233       75.28905       80.58592
O         99.67607       75.06343       81.70959
H        101.02899       78.19156       81.57278
H        101.97936       76.14966       81.07335
H        101.50324       76.42815       79.36785
N         99.69689       74.53279       79.51993
C         98.82714       73.35903       79.65265
C         97.42722       73.59147       79.09749
O         96.56852       72.75067       79.33427
C         99.49864       72.10564       79.02367
C         99.66877       72.18370       77.49377
O        100.73600       71.84899       79.64098
H        100.03965       74.78841       78.58321
H         98.67455       73.14414       80.73279
H         98.84516       71.22788       79.22117
H        101.38175       72.53711       79.33063
H         98.68506       72.29767       77.00075
H        100.32036       73.02919       77.19202
H        100.12889       71.24585       77.11718
N         97.10919       74.70654       78.38439
C         95.75886       75.05336       77.95389
C         95.41812       76.39888       78.55517
O         96.23247       77.31144       78.49178
C         95.64961       75.07363       76.40302
C         95.88908       73.67049       75.78107
C         94.28984       75.63417       75.93316
C         94.86663       72.58916       76.16991
H         97.85443       75.37758       78.14701
H         95.00964       74.32328       78.32592
H         96.43495       75.75495       76.00669
H         96.89771       73.31578       76.06394
H         95.87203       73.76730       74.67400
H         94.23312       75.63006       74.82447
H         93.44233       75.04689       76.34381
H         94.16313       76.68600       76.26097
H         94.86960       72.38869       77.25921
H         93.84057       72.86895       75.85502
H         95.12463       71.63860       75.65835
N         94.19015       76.60866       79.09784
C         93.77989       77.86716       79.69935
C         93.03766       77.61098       81.01781
O         92.44454       78.53168       81.55786
C         92.91672       78.61694       78.66434
C         92.72579       80.08164       78.96727
O         92.10869       80.77732       78.17701
O         93.26761       80.65222       80.06212
H         93.48062       75.86326       79.00305
H         94.66609       78.51115       79.89065
H         91.93874       78.10411       78.53910
H         93.45080       78.59174       77.68929
N         93.04148       76.37333       81.60471
C         92.27804       76.05038       82.80292
C         90.79341       76.00838       82.46074
O         90.42703       75.24608       81.57685
C         92.75981       74.69479       83.37387
C         92.06043       74.31401       84.65884
C         92.69386       74.51648       85.89750
C         90.77672       73.73977       84.63310
C         92.04895       74.16292       87.08672
C         90.14044       73.37752       85.82382
C         90.77439       73.59199       87.04991
H         93.62192       75.62410       81.20409
H         92.51247       76.79936       83.58753
H         93.84699       74.81454       83.58062
H         92.66669       73.86530       82.63867
H         93.68124       74.95863       85.94475
H         90.27291       73.55776       83.69300
H         92.53850       74.33039       88.03734
H         89.15626       72.92798       85.79552
H         90.27925       73.31348       87.97112
N         89.86522       76.76338       83.12634
C         88.42974       76.67132       82.89755
C         87.95776       77.50195       81.70973
O         86.75126       77.61083       81.53862
C         87.85568       77.20819       84.21519
C         88.83369       78.30993       84.55685
C         90.16819       77.64140       84.24088
H         88.07979       75.62161       82.77946
H         86.78519       77.50512       84.18250
H         87.97124       76.41894       84.99364
H         88.66215       79.13338       83.83175
H         88.75791       78.72606       85.58301
H         90.92272       78.41948       83.99655
H         90.51451       77.01419       85.09194
N         88.82426       78.10491       80.84423
C         88.38651       78.96154       79.74760
C         88.62377       78.31019       78.39186
O         88.29648       78.93545       77.39224
C         89.11540       80.31747       79.84037
C         88.86468       81.02850       81.17703
C         89.60668       82.33106       81.24749
O         90.95078       82.34733       81.17056
O         88.99864       83.37890       81.39505
H         89.83835       77.96652       80.95234
H         87.29293       79.15460       79.80700
H         88.77872       80.97964       79.01202
H         90.20060       80.13787       79.73269
H         89.22238       80.39605       82.01305
H         87.77425       81.20588       81.29993
N         89.14260       77.05170       78.26961
C         89.32398       76.38583       76.99455
H         90.39440       76.12573       76.86159
H         88.72254       75.45200       76.98331
H         89.00329       77.01166       76.13533
H         89.40918       76.51394       79.10564
Ca        92.90613       83.54390       79.20988
O         94.27760       83.47946       81.99927
H         94.58130       84.41952       82.06679
H         93.51050       83.42083       82.62262
O         92.78255       84.37786       76.33820
H         92.05981       83.78783       76.00646
H         93.45370       84.38416       75.61070
O         90.00789       84.24396       78.05305
H         89.26985       84.22930       77.39356
H         89.85955       83.43733       78.60664
O         91.89310       86.24194       80.28011
H         92.78448       86.20994       80.71032
H         92.08545       86.41458       79.32407

Ca 1.0



