%chk=apoCaM-CA-Ng.loop2.water4.frame1264.chk
%nprocshared=20
%mem=10GB
%nosave
#b3lyp/svp scf=(tight,noincore,xqc) Test 
#IOP(5/87=12) Density=Current Pop=(MK,readradii) iop(6/33=2) iop(6/42=6)

apoCaM-CA-Ng.loop2.water4.frame1264 

   -2  1 
C         31.79219       56.64692       35.82956
C         31.63015       56.97864       34.36637
O         32.63484       56.93957       33.67148
H         32.54752       57.33115       36.27072
H         30.87375       56.76936       36.42890
H         32.15493       55.60311       35.93744
N         30.44689       57.34827       33.78837
C         29.15325       57.40317       34.46403
C         28.12161       58.14865       33.61069
O         27.85048       57.75631       32.48535
C         28.63141       55.99097       34.85963
C         28.51576       54.98005       33.74884
O         28.02116       53.75804       34.02283
O         28.89198       55.22932       32.61771
H         30.48082       57.62536       32.79457
H         29.27011       57.98837       35.40060
H         27.63201       56.11677       35.32933
H         29.28870       55.52873       35.61930
N         27.49157       59.24376       34.12508
C         26.46726       60.02118       33.42798
C         27.03087       60.73792       32.21402
O         28.06900       61.37380       32.33742
C         25.88106       61.06363       34.38752
H         27.73041       59.52347       35.08932
H         25.62680       59.35475       33.13197
H         25.07741       61.64123       33.88318
H         25.43963       60.55251       35.27058
H         26.66741       61.76559       34.73963
N         26.35861       60.73163       31.02215
C         26.85075       61.40902       29.82017
C         25.93971       62.55448       29.40950
O         24.89587       62.75151       30.01745
C         26.92650       60.40407       28.65650
C         27.73163       59.19103       29.00685
O         27.20649       58.09050       28.97861
O         29.02779       59.30592       29.35184
H         25.45352       60.23900       30.96451
H         27.86035       61.83605       30.00645
H         27.37608       60.88450       27.76183
H         25.89348       60.08149       28.39224
N         26.29132       63.36639       28.36707
C         25.44566       64.44665       27.88602
C         24.22615       63.95887       27.12542
O         23.38901       64.79027       26.80422
H         27.20765       63.23522       27.91343
H         26.02022       65.09191       27.18700
H         25.14088       65.07480       28.75156
N         24.06291       62.64666       26.77652
C         22.88497       62.13769       26.07891
C         22.10868       61.15088       26.94177
O         21.09451       60.65081       26.47342
C         23.27108       61.52227       24.70977
C         24.13382       60.27876       24.74982
N         24.46644       59.66122       23.59222
O         24.52098       59.81234       25.81060
H         24.79842       61.96998       27.01734
H         22.18372       62.97140       25.85448
H         23.79107       62.29611       24.10387
H         22.33258       61.25503       24.17535
H         24.14079       60.03001       22.68627
H         25.04193       58.80598       23.60001
N         22.49674       60.83749       28.21716
C         21.75211       59.92708       29.07138
C         20.35929       60.44538       29.37543
O         20.03547       61.55492       28.97379
H         23.34877       61.24781       28.61739
H         22.29512       59.79721       30.03191
H         21.70314       58.94321       28.57854
N         19.44586       59.72016       30.08038
C         19.65331       58.36797       30.58757
C         19.25464       57.35786       29.52178
O         18.17012       57.46136       28.96612
C         18.85715       58.17965       31.89713
C         19.04729       56.76903       32.47198
O         19.30970       59.12641       32.83224
H         18.51330       60.14241       30.21794
H         20.72131       58.22146       30.86263
H         17.77532       58.34770       31.68708
H         18.65418       59.13738       33.57738
H         18.66666       56.00247       31.76476
H         20.12222       56.57376       32.67411
H         18.48042       56.66907       33.42103
N         20.11089       56.34806       29.19550
C         19.90992       55.39442       28.10576
C         19.80500       53.96497       28.65526
O         20.67903       53.57869       29.41838
C         21.11545       55.54540       27.12655
C         20.98748       56.89444       26.37469
C         21.21906       54.37942       26.12716
C         22.24062       57.29217       25.59905
H         20.98985       56.26797       29.73066
H         18.99294       55.64766       27.54940
H         22.05025       55.53421       27.73306
H         20.78924       57.70508       27.09470
H         20.11455       56.85796       25.68687
H         20.31335       54.31357       25.49097
H         22.11379       54.48232       25.48224
H         21.35100       53.42669       26.67585
H         23.10359       57.37916       26.29325
H         22.47939       56.56587       24.79854
H         22.06875       58.27866       25.12096
N         18.81990       53.07825       28.28285
C         17.76008       53.36459       27.31704
C         17.33352       52.11285       26.55040
O         16.79871       51.18890       27.14903
C         16.57087       54.01280       28.05376
C         15.48738       54.48339       27.12189
O         14.88355       53.69085       26.41672
O         15.16124       55.78922       27.08103
H         18.86153       52.12463       28.67634
H         18.14164       54.06396       26.55138
H         16.94029       54.89048       28.62567
H         16.14322       53.29169       28.78474
N         17.53303       52.03787       25.19973
C         17.07059       50.93507       24.35785
C         17.63507       51.08905       22.94381
O         17.43806       52.14943       22.35865
C         15.52139       50.93927       24.23901
C         15.05912       49.83082       23.31131
C         14.62437       50.13048       22.00612
C         15.11358       48.48780       23.72024
C         14.27750       49.10312       21.12258
C         14.75798       47.46372       22.83537
C         14.34707       47.77079       21.53580
H         18.04348       52.81166       24.74553
H         17.40677       49.97866       24.80608
H         15.22192       51.92559       23.81858
H         15.01590       50.83967       25.22241
H         14.58486       51.15561       21.65968
H         15.44824       48.23420       24.71807
H         13.96621       49.33910       20.11274
H         14.81358       46.43053       23.15269
H         14.08665       46.97653       20.84757
N         18.27747       50.07837       22.28219
C         18.48964       48.72872       22.78718
C         19.71995       48.61241       23.66177
O         20.00630       47.49705       24.08058
C         18.65948       47.91667       21.49724
C         19.43005       48.88543       20.62303
C         18.68974       50.19064       20.89586
H         17.61903       48.32273       23.32715
H         19.11789       46.91205       21.62408
H         17.65571       47.78232       21.03117
H         20.45947       48.96656       21.04054
H         19.50491       48.61427       19.54913
H         19.35817       51.05840       20.70716
H         17.77289       50.27061       20.26930
N         20.52423       49.67868       23.94155
C         21.79096       49.53821       24.64850
C         22.93186       49.89072       23.70122
O         22.66935       50.48334       22.66216
C         21.81789       50.45462       25.88947
C         20.71251       50.14694       26.91216
C         20.83305       48.76235       27.48157
O         19.82148       47.88499       27.33990
O         21.84148       48.42930       28.08379
H         20.27840       50.61590       23.58752
H         21.92510       48.48181       24.95474
H         21.69376       51.50130       25.54464
H         22.80060       50.38793       26.40157
H         19.71586       50.27253       26.43789
H         20.78864       50.87566       27.74732
N         24.23171       49.54721       23.93221
C         24.71470       48.76559       25.05387
H         25.48157       49.34622       25.60433
H         23.92576       48.46981       25.76773
H         25.17899       47.83434       24.66534
H         24.93657       49.82556       23.23209
Ca        28.47100       55.74718       29.92484
O         31.22977       56.60094       30.38295
H         31.92821       57.28673       30.23767
H         31.69933       55.85282       30.83025
O         26.39346       54.47164       28.23793
H         26.52450       53.98323       29.08962
H         27.09551       54.11457       27.63771
O         29.74723       56.64188       27.40397
H         30.38026       55.88060       27.42009
H         29.16910       56.46947       26.61908
O         25.64218       56.30726       31.20758
H         25.79756       55.63647       31.91940
H         24.69757       56.57988       31.32213

Ca 1.0



