%chk=apoCaM-CA-Ng.loop2.water6.frame475.chk
%nprocshared=20
%mem=10GB
%nosave
#b3lyp/svp scf=(tight,noincore,xqc) Test 
#IOP(5/87=12) Density=Current Pop=(MK,readradii) iop(6/33=2) iop(6/42=6)

apoCaM-CA-Ng.loop2.water6.frame475 

   -2  1 
C         47.74646       49.28049       74.20951
C         47.85565       48.38868       73.00739
O         48.38808       47.29333       73.12067
H         46.67540       49.48022       74.42494
H         48.20347       48.80169       75.10231
H         48.26445       50.24239       74.01390
N         47.35285       48.79849       71.80840
C         47.37955       47.96449       70.60994
C         48.79119       47.63467       70.15872
O         48.95378       46.62853       69.48116
C         46.62788       48.65845       69.45639
C         46.56924       47.80731       68.21626
O         47.07572       48.20074       67.17744
O         45.96969       46.60193       68.24997
H         46.90288       49.72621       71.76307
H         46.85442       47.01387       70.85787
H         47.13646       49.62155       69.22431
H         45.58791       48.88124       69.77541
N         49.85354       48.43022       70.47135
C         51.20938       48.11867       70.04350
C         51.84934       49.26763       69.28564
O         51.29976       50.35912       69.22651
C         52.03163       47.78910       71.28398
H         49.70843       49.27202       71.04959
H         51.22077       47.23153       69.37425
H         51.98877       48.65389       71.97268
H         51.59536       46.91116       71.80476
H         53.08571       47.55732       71.02658
N         53.04888       49.05664       68.67634
C         53.83917       50.08359       68.01090
C         55.19706       50.18957       68.69770
O         55.55231       51.27632       69.13241
C         53.89408       49.87951       66.47167
C         54.33178       48.55803       65.88286
O         54.62551       47.48633       66.63643
O         54.37198       48.44612       64.66792
H         53.43187       48.10193       68.71128
H         53.35499       51.08068       68.12403
H         54.54385       50.67876       66.05200
H         52.86581       50.05212       66.08348
N         55.97596       49.09042       68.90288
C         57.22337       49.09607       69.64356
C         57.02183       49.52218       71.07954
O         57.75241       50.38240       71.54998
H         55.66407       48.17445       68.56819
H         57.97971       49.73284       69.13580
H         57.61404       48.05459       69.66286
N         56.03613       48.95750       71.83409
C         55.82215       49.25353       73.25041
C         55.74295       47.95779       74.04154
O         55.73775       46.88576       73.44729
C         54.49305       50.01000       73.43063
C         54.46229       51.32231       72.69502
N         55.27320       52.33930       73.06601
O         53.67850       51.47748       71.77030
H         55.39479       48.29109       71.37605
H         56.65433       49.87128       73.65235
H         54.28729       50.21186       74.50352
H         53.68492       49.36018       73.05784
H         55.92215       52.23208       73.85898
H         55.23570       53.24390       72.57358
N         55.64608       47.97822       75.40016
C         55.42346       46.75244       76.15069
C         55.49335       46.92380       77.65203
O         55.85085       47.98391       78.14727
H         55.70235       48.88395       75.88977
H         56.18977       45.99489       75.87727
H         54.42020       46.35877       75.87328
N         55.17314       45.86136       78.44120
C         55.29496       45.84972       79.89749
C         54.55928       47.00308       80.55973
O         55.16399       47.65816       81.39767
C         54.88625       44.47970       80.51468
C         53.43398       44.04376       80.25755
O         55.77802       43.46993       80.10737
H         54.84503       45.00884       77.96396
H         56.37134       45.97484       80.15531
H         55.00153       44.57142       81.61739
H         55.62026       43.27853       79.14762
H         53.24335       43.07847       80.77310
H         52.71813       44.78275       80.65980
H         53.23587       43.90265       79.17547
N         53.28433       47.34136       80.21595
C         52.56750       48.45319       80.84237
C         52.42419       49.61190       79.87971
O         52.80764       49.48975       78.72296
C         51.22538       47.97116       81.47685
C         50.27920       47.17229       80.53687
C         51.54199       47.10389       82.70697
C         49.77069       47.94370       79.32159
H         52.82597       46.82402       79.45164
H         53.17750       48.89185       81.66263
H         50.67149       48.85684       81.85766
H         49.38325       46.87291       81.12388
H         50.76746       46.23739       80.19046
H         52.15211       47.67944       83.43588
H         50.60571       46.79700       83.21916
H         52.10550       46.19250       82.42154
H         50.59473       48.19531       78.62873
H         49.05569       47.30460       78.76042
H         49.24570       48.86816       79.64126
N         51.94362       50.81112       80.32398
C         51.93620       51.99875       79.48375
C         52.23774       53.23666       80.32358
O         51.50811       54.20960       80.24159
C         50.58166       52.06367       78.74358
C         50.49803       53.12336       77.68138
O         49.46056       53.25423       77.05400
O         51.54853       53.91632       77.39648
H         51.66082       50.90424       81.31210
H         52.76057       51.91602       78.74077
H         49.77221       52.22560       79.49032
H         50.39869       51.08929       78.24180
N         53.30575       53.25688       81.17429
C         53.65792       54.41120       82.00619
C         52.48175       54.82122       82.88572
O         51.94749       53.95913       83.57045
C         54.91292       54.09073       82.85537
C         55.42746       55.30353       83.60441
C         56.58112       55.96749       83.15030
C         54.76758       55.79137       84.74909
C         57.05138       57.10515       83.81218
C         55.24609       56.92642       85.41190
C         56.38390       57.58550       84.94078
H         53.88681       52.40635       81.23864
H         53.94555       55.24013       81.32951
H         55.69672       53.75890       82.13927
H         54.74137       53.24810       83.56118
H         57.10829       55.61636       82.27217
H         53.88598       55.29650       85.13385
H         57.93211       57.61679       83.44625
H         54.73295       57.29747       86.28985
H         56.74955       58.46770       85.45032
N         52.02251       56.11438       82.94643
C         50.90036       56.52098       83.77760
C         49.56494       56.22658       83.10537
O         48.54343       56.30586       83.77286
C         51.12085       58.03161       83.92884
C         51.67522       58.40655       82.56612
C         52.64066       57.25520       82.29097
H         50.93681       56.04109       84.78078
H         50.23272       58.61183       84.26085
H         51.94221       58.19351       84.66347
H         50.83580       58.34657       81.83965
H         52.12883       59.41687       82.48313
H         52.75760       57.13144       81.19352
H         53.62752       57.44005       82.76661
N         49.48982       55.96842       81.76812
C         48.23355       55.78085       81.05431
C         47.60151       54.42127       81.32759
O         46.50156       54.19798       80.84051
C         48.44918       55.96855       79.53295
C         48.98376       57.37754       79.20922
C         49.13245       57.59144       77.73520
O         49.89612       56.89660       77.08528
O         48.44629       58.57848       77.12907
H         50.35313       56.00507       81.21826
H         47.52321       56.57356       81.37931
H         47.47663       55.83754       79.00892
H         49.15622       55.19930       79.15427
H         49.97741       57.54376       79.67230
H         48.27922       58.13557       79.61383
N         48.22134       53.46225       82.07844
C         47.63464       52.16423       82.35173
H         46.63282       52.04119       81.88868
H         48.30061       51.36780       81.95820
H         47.52697       52.03395       83.44892
H         49.15357       53.63526       82.47843
Ca        50.16316       55.02173       74.84748
O         48.44461       57.33366       73.87064
H         48.09167       57.59911       74.75564
H         47.82243       57.74893       73.22299
O         47.12058       54.51487       75.12619
H         47.08097       53.89127       75.89392
H         46.62841       55.31720       75.43279
O         48.73996       53.94973       72.42913
H         48.98061       54.80906       71.99982
H         49.32447       53.28093       71.99218
O         53.29136       55.73708       75.71060
H         53.38216       55.77431       76.69574
H         54.20010       55.93287       75.37038
O         51.56301       56.99835       73.26412
H         51.26935       57.44373       72.43054
H         52.52747       57.20803       73.33698
O         51.83463       52.76581       73.88241
H         52.55625       53.42287       74.04995
H         51.61705       52.87956       72.92335

Ca 1.0



