%chk=apoCaM-CA-Ng.loop3.water3.frame618.chk
%nprocshared=20
%mem=10GB
%nosave
#b3lyp/svp scf=(tight,noincore,xqc) Test 
#IOP(5/87=12) Density=Current Pop=(MK,readradii) iop(6/33=2) iop(6/42=6)

apoCaM-CA-Ng.loop3.water3.frame618 

   0  1 
C         82.69588       24.81013       57.13305
C         83.24978       25.62823       56.00395
O         83.31320       26.84420       56.11736
H         81.81060       24.23953       56.78223
H         83.46986       24.09709       57.48843
H         82.39243       25.45816       57.98265
N         83.69047       25.00810       54.87432
C         84.27432       25.72311       53.74292
C         83.23524       26.64622       53.13900
O         82.21933       26.16457       52.65591
C         84.81481       24.69402       52.72756
C         85.66177       25.23477       51.61100
O         86.29451       24.44430       50.92942
O         85.82172       26.55086       51.38345
H         83.63134       23.97779       54.84011
H         85.14175       26.30661       54.12598
H         83.99325       24.07469       52.30918
H         85.48649       24.02153       53.30447
N         83.39167       27.99904       53.20936
C         82.34828       28.92782       52.77942
C         82.17101       28.93730       51.26289
O         81.15331       29.43724       50.80461
C         82.62402       30.35556       53.30976
C         82.68031       30.39546       54.85355
C         83.03136       31.79688       55.37477
C         83.20672       31.84209       56.90572
N         81.96466       31.55779       57.62697
H         84.24260       28.36647       53.65973
H         81.39083       28.58788       53.23626
H         81.81570       31.04140       52.97212
H         83.58671       30.71795       52.88980
H         83.45921       29.69992       55.22706
H         81.69733       30.06956       55.25400
H         82.25727       32.53023       55.06129
H         84.00215       32.10024       54.92469
H         83.55332       32.86171       57.18496
H         83.99530       31.12056       57.21723
H         81.64449       30.57983       57.44966
H         82.13950       31.66003       58.65309
H         81.22149       32.23694       57.34429
N         83.12607       28.43488       50.42432
C         82.99857       28.38169       48.96769
C         83.17589       26.96244       48.41173
O         83.04198       26.79115       47.20774
C         83.98240       29.38336       48.32493
C         85.41661       29.20655       48.74800
O         86.01473       28.17271       48.51512
O         86.05734       30.21051       49.37497
H         84.00983       28.10644       50.83075
H         81.97920       28.70300       48.65855
H         83.66724       30.40664       48.62380
H         83.90992       29.32177       47.21739
N         83.43190       25.89303       49.22014
C         83.51320       24.51187       48.76711
C         84.71138       24.13637       47.91040
O         84.80843       22.95385       47.61259
H         83.49093       26.03234       50.23429
H         82.57633       24.24410       48.23155
H         83.57389       23.86561       49.67005
N         85.64481       25.02958       47.45756
C         86.77280       24.62722       46.61058
C         88.09776       25.14815       47.18323
O         88.07843       25.98546       48.07343
C         86.50177       25.16604       45.17981
C         87.06740       24.32114       44.05588
N         86.22982       23.71608       43.17598
O         88.27181       24.18755       43.92025
H         85.52383       26.02554       47.65667
H         86.80751       23.51725       46.56698
H         86.82061       26.22794       45.09292
H         85.40051       25.16045       45.03170
H         85.20687       23.82117       43.25385
H         86.59979       23.13749       42.40769
N         89.29269       24.70117       46.70596
C         90.59445       25.23390       47.09041
C         90.90637       25.08819       48.56088
O         90.78109       23.99033       49.08564
H         89.29418       23.94724       46.00852
H         90.67335       26.29760       46.77886
H         91.37215       24.66662       46.53421
N         91.41196       26.14617       49.26850
C         91.84639       26.02971       50.66030
C         90.63286       26.11020       51.62177
O         89.56604       25.36771       51.14214
C         92.86447       27.14030       51.01615
C         94.04987       27.17168       50.07089
C         94.90219       26.06057       49.93478
C         94.31173       28.32655       49.31169
C         95.98573       26.10326       49.04890
C         95.39597       28.36737       48.43008
C         96.23563       27.25383       48.29336
O         97.28162       27.27833       47.44209
H         91.60530       27.02190       48.76052
H         92.36353       25.05136       50.77877
H         93.24151       26.98739       52.05086
H         92.34110       28.12135       50.99087
H         94.72942       25.15978       50.50906
H         93.67578       29.19843       49.39880
H         96.63217       25.24017       48.94795
H         95.58085       29.26474       47.85265
H         97.48592       28.05342       46.89899
N         90.98564       25.74377       53.02340
C         89.95282       25.26780       53.99862
C         88.87940       26.30710       54.27375
O         88.10481       26.59798       53.38688
C         89.28946       23.89096       53.62737
C         88.22482       23.42327       54.65987
C         90.34147       22.79712       53.38564
C         88.75217       23.12326       56.06134
H         91.80050       25.08926       53.04400
H         90.50127       25.11127       54.95206
H         88.70567       23.99078       52.69612
H         87.73315       22.50437       54.27167
H         87.42987       24.19446       54.74749
H         90.99815       23.06371       52.53236
H         90.97365       22.64715       54.28509
H         89.84397       21.83945       53.12493
H         89.21412       24.02105       56.51739
H         87.90176       22.80980       56.70327
H         89.48647       22.29322       56.03559
N         88.73632       26.87743       55.50423
C         87.68237       27.85004       55.79515
C         88.24992       29.24892       55.94014
O         87.46476       30.18427       56.04069
C         86.90206       27.42286       57.04394
O         86.37040       26.14027       56.85148
H         89.40268       26.63579       56.25318
H         86.96443       27.90548       54.94758
H         86.07164       28.13854       57.23583
H         87.59835       27.42292       57.91452
H         86.14377       25.79159       57.75275
N         89.59450       29.47894       55.92466
C         90.19724       30.80292       55.93217
C         91.12218       30.93758       54.72130
O         91.42052       29.92154       54.10464
C         90.97830       30.95340       57.24226
H         90.24754       28.68262       55.89431
H         89.40722       31.57913       55.88937
H         91.47215       31.93467       57.33809
H         90.28151       30.83889       58.10020
H         91.75871       30.16588       57.31570
N         91.64997       32.11813       54.28581
C         91.27255       33.44492       54.76623
C         92.35773       34.47053       54.43575
O         93.02876       34.31096       53.42608
C         89.96174       33.86847       54.08687
H         92.27321       32.06000       53.46553
H         91.11301       33.42288       55.85169
H         90.09438       33.90681       52.98439
H         89.14442       33.15370       54.30790
H         89.63654       34.86987       54.43391
N         92.56172       35.60692       55.16888
C         91.81729       35.97264       56.37157
C         92.12579       35.07839       57.56395
O         91.37063       35.11701       58.52482
C         92.08488       37.44868       56.75047
C         93.53425       37.71246       57.21127
C         93.76055       39.17252       57.46779
O         94.11023       39.59744       58.69658
O         93.64954       39.97970       56.55850
H         93.25937       36.27098       54.79974
H         90.73695       35.89639       56.12907
H         91.39468       37.75094       57.56906
H         91.85197       38.07600       55.86160
H         94.26613       37.38406       56.44572
H         93.73429       37.14389       58.14528
N         93.25058       34.30531       57.60277
C         93.61530       33.48661       58.74163
H         94.57786       33.85072       59.15934
H         92.85317       33.51465       59.54838
H         93.74213       32.43466       58.41358
H         93.91001       34.31858       56.81219
Ca        87.95739       26.95251       50.88975
O         86.40206       29.71971       52.66513
H         86.46851       30.48118       53.29416
H         85.75286       30.02082       51.98184
O         89.34429       28.70786       48.60685
H         88.94537       29.54547       48.26233
H         90.26223       28.96412       48.87389
O         89.25771       29.59942       51.65533
H         90.13309       29.20257       51.89125
H         89.34817       30.55960       51.87861

Ca 1.0



