%chk=apoCaM-CA-Ng.loop2.water5.frame1494.chk
%nprocshared=20
%mem=10GB
%nosave
#b3lyp/svp scf=(tight,noincore,xqc) Test 
#IOP(5/87=12) Density=Current Pop=(MK,readradii) iop(6/33=2) iop(6/42=6)

apoCaM-CA-Ng.loop2.water5.frame1494 

   -2  1 
C         60.29016       76.59052       27.85044
C         61.05705       76.29962       29.11060
O         60.96189       77.08362       30.04323
H         59.70760       77.53020       27.95613
H         60.98627       76.70269       26.99404
H         59.57687       75.76223       27.65089
N         61.82320       75.18300       29.26213
C         62.01437       74.16119       28.24140
C         63.49525       73.94909       27.94600
O         63.87232       74.12172       26.79436
C         61.21933       72.87899       28.59740
C         61.19618       72.47284       30.05073
O         60.13329       72.46699       30.65202
O         62.30502       72.09961       30.70285
H         62.27518       75.03179       30.17786
H         61.57779       74.47439       27.26867
H         61.53872       72.03506       27.94813
H         60.15798       73.09672       28.33877
N         64.39164       73.56848       28.90143
C         65.79993       73.29477       28.60939
C         66.13181       71.81608       28.76225
O         67.23380       71.42341       28.40502
C         66.68963       74.14950       29.51458
H         64.06691       73.44808       29.86705
H         66.02962       73.55029       27.55281
H         66.46478       75.22561       29.35852
H         66.50735       73.89910       30.58196
H         67.76302       73.97577       29.28797
N         65.23023       70.93924       29.28327
C         65.43893       69.50814       29.40693
C         64.26911       68.75397       28.78180
O         64.51796       67.86713       27.97644
C         65.72463       69.13311       30.87993
C         64.73491       69.62998       31.89133
O         65.12807       70.49466       32.84632
O         63.58831       69.22993       31.88427
H         64.34654       71.29763       29.64853
H         66.36034       69.18825       28.86923
H         66.70626       69.58415       31.14434
H         65.83021       68.03027       30.97282
N         62.96713       69.05070       29.08261
C         61.84202       68.28152       28.58050
C         61.93750       66.89960       29.15839
O         62.04490       65.93515       28.41573
H         62.74521       69.83094       29.71016
H         61.84489       68.27344       27.46891
H         60.88925       68.74199       28.92506
N         61.96318       66.76222       30.51467
C         62.25393       65.50255       31.19788
C         62.07724       65.56390       32.73208
O         61.97439       64.49765       33.32518
C         63.70223       65.07557       30.83566
C         64.10845       63.72922       31.36744
N         65.18925       63.60671       32.17290
O         63.47592       62.73560       31.04318
H         61.78804       67.61986       31.03919
H         61.51783       64.75779       30.82164
H         64.40046       65.86115       31.20047
H         63.82607       65.02017       29.73616
H         65.74575       64.43188       32.44128
H         65.48153       62.68125       32.51849
N         62.04476       66.72742       33.45337
C         61.81471       66.76061       34.89389
C         61.93222       68.16705       35.48902
O         62.25908       69.09814       34.76570
H         62.19701       67.61848       32.98697
H         62.56890       66.11703       35.39594
H         60.79764       66.35953       35.08919
N         61.72709       68.43269       36.81358
C         61.32419       67.44774       37.81396
C         60.02398       67.83050       38.53792
O         59.51047       66.97057       39.24189
C         62.47677       67.24245       38.83013
C         63.71288       66.62850       38.15196
O         62.81222       68.47557       39.41628
H         61.90419       69.39715       37.13382
H         61.12175       66.47084       37.33157
H         62.13515       66.53546       39.62024
H         63.46657       68.28915       40.13934
H         64.10134       67.28792       37.34737
H         64.52158       66.47440       38.89783
H         63.45640       65.63878       37.71752
N         59.45593       69.07893       38.47539
C         58.23995       69.45638       39.21426
C         57.30665       70.25647       38.29277
O         57.80766       71.19360       37.68514
C         58.60069       70.32778       40.45712
C         59.67784       69.62745       41.32910
C         57.32011       70.59278       41.27948
C         60.05934       70.39871       42.59446
H         59.93951       69.82454       37.95695
H         57.75663       68.54749       39.61510
H         59.01683       71.30260       40.11553
H         60.60480       69.51771       40.72744
H         59.33132       68.61414       41.62677
H         56.54239       71.07779       40.66135
H         56.90485       69.63971       41.67148
H         57.51475       71.27807       42.12678
H         59.20739       70.45159       43.30263
H         60.88379       69.86689       43.11415
H         60.39776       71.42492       42.33981
N         55.96302       70.03847       38.12020
C         55.11947       69.05235       38.79011
C         53.92429       69.72686       39.46370
O         53.17646       70.42811       38.79614
C         54.56825       68.05683       37.75492
C         55.66568       67.27619       37.09352
O         56.47737       66.49421       37.83061
O         55.81670       67.33370       35.88395
H         55.48107       70.64973       37.44121
H         55.67408       68.47114       39.54768
H         53.97734       68.60416       36.98615
H         53.89027       67.33555       38.26193
N         53.63516       69.46411       40.77019
C         52.40304       69.87750       41.44429
C         52.71810       70.63534       42.72407
O         53.47900       70.10806       43.52426
C         51.60447       68.60629       41.80700
C         51.03086       67.93830       40.58065
C         51.54956       66.72127       40.10889
C         49.94781       68.53071       39.90585
C         50.99871       66.11395       38.97464
C         49.39061       67.91247       38.78290
C         49.91795       66.70663       38.31517
H         54.27702       68.85250       41.29786
H         51.76092       70.49033       40.78821
H         50.75297       68.84469       42.48298
H         52.27560       67.91267       42.36115
H         52.38535       66.24935       40.60929
H         49.52390       69.46240       40.26081
H         51.40745       65.18157       38.60771
H         48.54834       68.36729       38.27690
H         49.48745       66.23110       37.44313
N         52.12585       71.83224       43.05010
C         51.10235       72.53169       42.28022
C         51.60081       73.07514       40.96270
O         50.97531       72.83151       39.94181
C         50.67316       73.69071       43.19386
C         50.91371       73.10354       44.56835
C         52.27080       72.44301       44.35699
H         50.23295       71.84790       42.14443
H         51.37848       74.54772       43.09860
H         49.64609       74.06810       42.99904
H         50.88143       73.83987       45.39893
H         50.15295       72.31032       44.75234
H         53.06457       73.22159       44.29872
H         52.49734       71.72540       45.17421
N         52.73914       73.82212       40.92034
C         53.24891       74.42036       39.69565
C         52.38141       75.62271       39.34312
O         52.32957       76.54515       40.14514
C         54.71377       74.87946       39.88497
C         55.64291       73.70219       40.22951
C         57.05991       74.16074       40.41731
O         57.66728       74.68049       39.49520
O         57.67264       73.98906       41.60467
H         53.26582       73.95656       41.79658
H         53.25973       73.65124       38.89446
H         54.77129       75.63737       40.69814
H         55.06717       75.34903       38.94011
H         55.61063       72.94579       39.41605
H         55.30780       73.21643       41.17034
N         51.65854       75.72323       38.19239
C         51.61144       74.70271       37.17053
H         50.94514       75.03301       36.34515
H         52.62573       74.52511       36.75785
H         51.19838       73.76220       37.58661
H         51.10070       76.57806       38.03775
Ca        62.11215       71.49410       32.86672
O         63.52007       72.66751       35.19364
H         63.29299       73.62581       35.09162
H         64.05327       72.62467       36.02586
O         60.91911       74.25870       33.08109
H         61.32222       74.74464       33.84333
H         60.06073       73.91220       33.43257
O         64.10491       73.74980       32.46034
H         64.30237       74.67231       32.16171
H         64.99047       73.31436       32.53752
O         60.25678       71.63735       35.20218
H         60.65206       71.49128       36.09765
H         59.62840       70.88231       35.08031
O         60.01635       69.33092       32.22978
H         59.89638       69.19498       33.20279
H         59.67099       68.49825       31.82105

Ca 1.0



