%chk=apoCaM-CA-Ng.loop4.water4.frame290.chk
%nprocshared=20
%mem=10GB
%nosave
#b3lyp/svp scf=(tight,noincore,xqc) Test 
#IOP(5/87=12) Density=Current Pop=(MK,readradii) iop(6/33=2) iop(6/42=6)

apoCaM-CA-Ng.loop4.water4.frame290 

   -3  1 
C         45.91434       43.99223       15.57402
C         45.67722       43.39893       14.21951
O         46.51476       43.57702       13.34854
H         46.87448       44.55328       15.59045
H         45.08990       44.69091       15.82524
H         45.96228       43.18406       16.33264
N         44.55879       42.65241       13.97835
C         44.24806       42.03080       12.69294
C         45.36111       41.10561       12.25332
O         45.91120       41.31463       11.19407
C         43.76827       43.07549       11.63495
C         44.53953       44.37569       11.46124
O         45.77774       44.48470       10.92032
O         43.98962       45.40894       11.81033
H         43.90505       42.48714       14.75912
H         43.36784       41.36128       12.82978
H         42.75778       43.38118       11.99293
H         43.60789       42.58434       10.65127
N         45.72846       40.05105       13.04467
C         46.80984       39.08979       12.78649
C         46.49192       38.12595       11.63076
O         46.28561       36.95303       11.91283
C         48.19089       39.80397       12.69148
C         49.36697       38.83836       12.39834
C         48.46269       40.61217       13.97845
C         49.58028       37.73351       13.43698
H         45.22215       39.93674       13.93716
H         46.85502       38.44248       13.69247
H         48.16646       40.52282       11.84709
H         50.30308       39.43427       12.32365
H         49.20288       38.35716       11.41204
H         47.67215       41.36872       14.14582
H         48.48184       39.95549       14.87317
H         49.43105       41.14960       13.90615
H         48.69276       37.07290       13.50550
H         50.44347       37.10841       13.12804
H         49.80491       38.15646       14.43672
N         46.41459       38.52018       10.32678
C         45.96831       37.63827        9.25057
C         47.04096       36.64615        8.77625
O         46.75781       35.46118        8.88502
C         45.31703       38.45087        8.11528
C         44.06394       39.14045        8.59800
O         43.96571       40.35501        8.54935
O         43.03505       38.41382        9.07685
H         46.58733       39.49731       10.08744
H         45.12591       37.01884        9.64089
H         45.02238       37.76648        7.29070
H         46.01950       39.20898        7.72771
N         48.27805       36.95128        8.26426
C         48.87563       38.26710        8.13159
C         48.46601       39.00687        6.86870
O         47.68166       38.46626        6.10186
H         48.90069       36.15672        8.04880
H         49.97543       38.14201        8.05584
H         48.66635       38.81638        9.06083
N         48.93565       40.25701        6.54871
C         49.93130       41.03041        7.30320
C         49.55512       41.09124        8.79260
O         48.18088       41.22862        9.03137
C         50.09388       42.44883        6.69520
C         50.69520       42.45017        5.31092
O         50.90596       43.62421        4.68637
O         51.02351       41.41172        4.75751
H         48.54621       40.69035        5.69606
H         50.90954       40.50740        7.24867
H         50.76971       43.06309        7.31955
H         49.10742       42.95865        6.67509
N         50.40676       41.83959        9.72847
C         51.86368       41.64390        9.56583
C         52.33255       40.20584        9.61840
O         51.53017       39.29451        9.75922
H         50.15706       41.50237       10.68544
H         52.37903       42.19974       10.37739
H         52.21329       42.08505        8.61387
N         53.66743       39.94638        9.52873
C         54.23134       38.60271        9.57342
C         54.89689       38.32581       10.91264
O         55.36489       37.21296       11.10298
C         55.18125       38.36887        8.37279
C         56.46209       39.22521        8.41071
C         57.33829       38.96492        7.21144
N         56.91101       39.26854        5.96306
O         58.45372       38.49133        7.36946
H         54.31162       40.74997        9.47680
H         53.41536       37.85168        9.48606
H         54.61486       38.56881        7.43763
H         55.48569       37.29848        8.36103
H         57.02320       38.97341        9.33556
H         56.22593       40.30777        8.42857
H         55.98123       39.68473        5.80933
H         57.51706       39.09879        5.14652
N         54.92784       39.26900       11.90474
C         55.45088       39.00955       13.24232
C         56.63816       39.89695       13.58372
O         57.22439       39.67115       14.63583
C         54.32038       39.16366       14.30087
C         53.17743       38.17566       14.02739
C         53.76013       40.59676       14.37196
H         54.52971       40.19898       11.73163
H         55.82751       37.96474       13.30209
H         54.74481       38.91681       15.29931
H         52.69929       38.38295       13.04575
H         53.56129       37.13367       14.02466
H         52.40283       38.25794       14.81904
H         53.27443       40.89117       13.42007
H         52.99700       40.66836       15.17531
H         54.56576       41.32506       14.60190
N         57.06327       40.90894       12.77036
C         58.24467       41.70984       13.05879
C         57.90426       43.17620       13.25364
O         58.28126       43.72830       14.27709
C         59.26769       41.58246       11.91190
C         59.69959       40.15876       11.67131
N         59.53653       39.58802       10.45493
O         60.21582       39.52005       12.57618
H         56.55996       41.11384       11.89545
H         58.75075       41.35582       13.98574
H         60.17052       42.17858       12.16753
H         58.83479       41.99907       10.97743
H         59.11978       40.11767        9.67554
H         59.83686       38.61687       10.28558
N         57.27598       43.89099       12.27332
C         57.21826       45.35037       12.27197
C         55.80073       45.88971       12.21411
O         54.99671       45.38986       11.44097
C         57.98047       45.86054       11.03058
C         59.38166       45.29797       10.94862
C         60.33096       45.56799       11.94893
C         59.74379       44.48047        9.86395
C         61.61699       45.02326       11.86605
C         61.02779       43.93704        9.78384
C         61.96826       44.20380       10.78275
O         63.20163       43.66721       10.69154
H         56.93732       43.39948       11.43299
H         57.72748       45.77434       13.16459
H         58.03090       46.97080       11.04510
H         57.41168       45.56138       10.12176
H         60.07663       46.19551       12.79355
H         59.02956       44.25379        9.08214
H         62.33814       45.23595       12.64496
H         61.28909       43.30362        8.94553
H         63.88210       43.82320       11.36158
N         55.48682       47.02315       12.91408
C         54.24187       47.78067       12.77904
C         53.01601       47.08688       13.34728
O         51.93939       47.65608       13.22315
C         54.00882       48.24888       11.32072
C         55.17126       49.10908       10.80406
C         54.87951       49.63301        9.42771
O         53.81483       50.43231        9.22101
O         55.61228       49.35096        8.49338
H         56.21196       47.43960       13.51774
H         54.34197       48.71004       13.38473
H         53.08631       48.87064       11.29576
H         53.84640       47.38636       10.64174
H         56.10353       48.50551       10.78418
H         55.32763       49.97634       11.48137
N         53.09286       45.93352       14.07214
C         51.93018       45.35207       14.73293
C         52.03691       45.59656       16.22099
O         51.15131       46.23713       16.77171
C         51.78735       43.85086       14.41753
C         51.62198       43.51115       12.92644
C         50.43726       44.18928       12.29662
O         49.36266       43.47156       11.92873
O         50.44922       45.39128       12.09428
H         54.01061       45.49851       14.24260
H         50.99261       45.85302       14.41152
H         50.89307       43.46683       14.95760
H         52.67498       43.30209       14.79740
H         51.47526       42.41131       12.86155
H         52.53979       43.76576       12.35385
N         53.10706       45.14740       16.93343
C         53.27728       45.40175       18.34971
H         54.21244       45.97922       18.50578
H         52.43655       45.98522       18.78194
H         53.34983       44.43729       18.89198
H         53.84944       44.61743       16.45412
Ca        47.30028       43.13244        9.91596
O         45.89532       42.38192        7.12425
H         45.18955       43.05730        7.28315
H         45.91640       41.85240        7.95907
O         49.49363       45.02492        8.87538
H         50.31345       44.62252        9.25698
H         49.81971       45.78760        8.33564
O         46.57508       45.79857        8.32974
H         46.86165       46.01753        7.40784
H         45.58651       45.77174        8.28514
O         47.77829       46.42814       11.33880
H         48.48966       47.09713       11.49866
H         47.36212       46.29016       12.22656

Ca 1.0



