%chk=apoCaM-CA-Ng.loop4.water6.frame720.chk
%nprocshared=20
%mem=10GB
%nosave
#b3lyp/svp scf=(tight,noincore,xqc) Test 
#IOP(5/87=12) Density=Current Pop=(MK,readradii) iop(6/33=2) iop(6/42=6)

apoCaM-CA-Ng.loop4.water6.frame720 

   -3  1 
C         93.42574       95.45036      -15.89276
C         94.48842       95.23267      -16.93047
O         94.16012       95.13527      -18.10354
H         92.70311       94.60866      -15.91805
H         93.86142       95.50762      -14.87204
H         92.89213       96.40154      -16.09865
N         95.79825       95.16326      -16.56257
C         96.91470       94.95912      -17.47883
C         96.96268       96.05175      -18.53612
O         97.13177       95.74676      -19.70976
C         96.86418       93.54906      -18.11653
C         96.79244       92.46296      -17.08162
O         95.83869       91.70080      -17.05951
O         97.78078       92.31921      -16.17898
H         96.03474       95.27787      -15.56469
H         97.84977       95.03547      -16.87944
H         97.77200       93.38629      -18.73721
H         95.97770       93.47192      -18.78378
N         96.76864       97.35832      -18.19668
C         96.76036       98.41360      -19.20556
C         98.18583       98.71322      -19.66761
O         99.09331       98.59070      -18.85663
C         96.00743       99.70139      -18.73443
C         96.67996      100.41135      -17.53234
C         94.52811       99.36342      -18.45739
C         96.05844      101.77862      -17.22725
H         96.55012       97.58535      -17.21614
H         96.16546       98.03924      -20.06339
H         96.01805      100.42135      -19.57675
H         97.74659      100.60043      -17.77352
H         96.63399       99.77896      -16.62170
H         94.42766       98.66882      -17.59747
H         93.93187      100.27437      -18.25267
H         94.07619       98.88442      -19.35134
H         96.12188      102.43617      -18.12139
H         94.99887      101.68966      -16.91517
H         96.61387      102.26240      -16.39716
N         98.48788       99.17807      -20.91709
C         97.51044       99.35567      -21.98237
C         96.98157       98.04005      -22.52140
O         95.84667       98.03203      -22.96685
C         98.03073      100.26399      -23.11981
C         99.24153       99.77582      -23.87391
O         99.69349      100.46233      -24.77604
O         99.84384       98.61052      -23.57290
H         99.46756       99.44412      -21.10194
H         96.65160       99.92407      -21.57695
H         98.28116      101.25366      -22.67887
H         97.20634      100.41864      -23.85127
N         97.71297       96.88657      -22.50525
C         97.20273       95.64683      -23.06840
C         97.06214       95.76827      -24.56828
O         98.07227       95.92650      -25.23946
H         98.65236       96.87664      -22.08192
H         96.23378       95.39919      -22.58323
H         97.90723       94.81237      -22.85900
N         95.83394       95.72995      -25.15965
C         95.63033       95.85193      -26.60115
C         94.99202       97.18569      -26.98304
O         94.79998       97.40908      -28.16945
C         94.86315       94.61433      -27.13195
C         93.54216       94.33909      -26.46083
O         92.61381       95.11899      -26.56261
O         93.36638       93.19501      -25.77232
H         95.00034       95.64051      -24.55834
H         96.60757       95.85521      -27.13201
H         95.50994       93.72638      -26.96482
H         94.70117       94.70745      -28.22808
N         94.70571       98.15308      -26.05839
C         94.18341       99.46896      -26.40443
C         92.76405       99.43468      -26.93421
O         92.26997      100.47377      -27.34631
H         94.90344       97.98269      -25.07177
H         94.86213       99.93186      -27.15357
H         94.18468      100.11794      -25.50086
N         92.04295       98.27912      -26.93781
C         90.69995       98.11959      -27.46913
C         89.64840       98.88108      -26.67788
O         88.57075       99.10478      -27.21176
C         90.64844       98.37038      -28.99684
C         91.61261       97.43155      -29.74684
C         91.42011       97.49921      -31.24008
N         92.43819       97.84660      -32.06158
O         90.33302       97.20928      -31.71745
H         92.46245       97.43800      -26.53986
H         90.41297       97.05273      -27.33525
H         90.88056       99.42846      -29.24548
H         89.61434       98.15294      -29.34169
H         91.42543       96.38131      -29.43550
H         92.65750       97.69047      -29.48132
H         93.36822       98.08237      -31.68660
H         92.29718       97.86972      -33.08281
N         89.84172       99.20348      -25.36144
C         88.79367       99.79732      -24.52897
C         88.44717       98.94438      -23.30820
O         87.48074       99.29457      -22.64298
C         89.16026      101.24509      -24.10906
C         90.45844      101.31648      -23.29002
C         89.25666      102.15592      -25.34023
H         90.75464       99.00703      -24.92811
H         87.84680       99.86151      -25.10924
H         88.33374      101.64133      -23.47716
H         91.33119      100.97921      -23.88737
H         90.64476      102.36262      -22.96751
H         90.37847      100.68717      -22.38046
H         89.45161      103.20339      -25.02743
H         90.07195      101.82704      -26.01819
H         88.29711      102.13900      -25.90115
N         89.15511       97.83187      -22.93952
C         88.78107       96.99641      -21.79782
C         88.49772       95.57520      -22.25127
O         88.67783       95.26068      -23.42140
C         89.88074       97.03426      -20.71879
C         90.04254       98.42503      -20.15425
N         91.22085       99.08196      -20.24983
O         89.09671       98.96140      -19.59527
H         89.98733       97.54713      -23.47450
H         87.83766       97.36394      -21.33619
H         90.83679       96.66877      -21.15241
H         89.61224       96.36582      -19.87263
H         92.03037       98.64979      -20.71668
H         91.32269      100.02996      -19.85714
N         87.96431       94.67840      -21.37447
C         87.51946       93.34632      -21.78293
C         86.59005       92.71262      -20.75509
O         86.39735       93.26683      -19.68166
C         88.69996       92.39786      -22.11025
C         89.53665       92.04098      -20.90059
C         90.39747       92.98176      -20.31065
C         89.46550       90.74562      -20.35702
C         91.17171       92.63201      -19.19851
C         90.23123       90.40188      -19.23989
C         91.08774       91.34046      -18.65754
O         91.82409       90.99001      -17.58357
H         87.77477       95.01077      -20.41684
H         86.89780       93.47618      -22.69698
H         89.35359       92.81128      -22.90639
H         88.26278       91.46810      -22.53230
H         90.48229       93.97999      -20.71745
H         88.80641       90.00204      -20.78845
H         91.83730       93.36430      -18.75921
H         90.15676       89.40356      -18.82650
H         92.43292       91.60656      -17.15249
N         85.93108       91.55700      -21.05522
C         84.97304       90.92897      -20.15991
C         85.36368       89.47714      -19.90920
O         85.02504       88.64810      -20.74384
C         83.56954       91.03457      -20.80511
C         82.45544       90.37366      -19.97768
C         81.13052       90.52281      -20.67085
O         80.62076       91.74811      -20.90038
O         80.50923       89.53485      -21.02969
H         86.07152       91.12766      -21.98277
H         84.90519       91.47854      -19.20902
H         83.59134       90.56274      -21.81320
H         83.32995       92.11323      -20.93991
H         82.39562       90.83886      -18.97136
H         82.67255       89.29105      -19.85167
N         86.05753       89.03447      -18.81582
C         86.72506       89.85001      -17.80077
C         85.79008       90.75831      -17.02622
O         84.80796       90.28804      -16.46903
C         87.46462       88.93458      -16.79346
C         88.36563       89.75175      -15.85429
C         88.99348       88.90674      -14.79199
O         88.21301       88.33256      -13.85753
O         90.20813       88.81722      -14.70944
H         86.19495       88.01244      -18.75396
H         87.49467       90.46035      -18.31830
H         88.11220       88.21563      -17.34295
H         86.71567       88.35131      -16.21144
H         87.78099       90.53293      -15.32597
H         89.15105       90.25356      -16.45904
N         86.09699       92.08233      -16.90615
C         85.31563       93.03170      -16.14384
H         84.41818       92.56954      -15.68449
H         85.94906       93.45395      -15.33432
H         84.99324       93.85866      -16.81007
H         86.95490       92.44011      -17.35203
Ca        89.13900       87.55363      -11.95659
O         89.54134       90.68872      -12.32168
H         90.36994       91.20505      -12.15956
H         88.90807       91.34368      -12.70939
O         86.67542       86.47861      -10.83276
H         86.58625       85.67011      -10.26883
H         86.28615       86.21992      -11.70579
O         92.19251       88.15172      -11.89381
H         92.49305       87.79832      -11.01903
H         92.58645       89.05850      -11.94501
O         90.38906       89.47406       -9.47942
H         90.61404       89.14681       -8.57245
H         90.88643       90.32581       -9.56671
O         90.72601       85.46223      -12.94394
H         90.33487       84.59833      -13.22628
H         91.66174       85.43828      -13.26423
O         90.33299       86.18899       -9.58081
H         90.93879       85.61457      -10.11310
H         90.15086       85.66699       -8.75995

Ca 1.0



