%chk=apoCaM-CA-Ng.loop4.water5.frame21.chk
%nprocshared=20
%mem=10GB
%nosave
#b3lyp/svp scf=(tight,noincore,xqc) Test 
#IOP(5/87=12) Density=Current Pop=(MK,readradii) iop(6/33=2) iop(6/42=6)

apoCaM-CA-Ng.loop4.water5.frame21 

   -3  1 
C         86.09360       39.92092       34.34081
C         87.12001       40.47915       33.40243
O         86.87486       41.52520       32.82497
H         85.15146       39.72158       33.79019
H         86.44246       38.97778       34.80975
H         85.89874       40.65967       35.14710
N         88.31780       39.85124       33.23430
C         89.40809       40.35478       32.40815
C         89.81432       41.74946       32.85132
O         89.83234       42.65786       32.04236
C         89.15317       40.14837       30.88747
C         87.95143       40.82675       30.28798
O         87.05269       40.15694       29.80357
O         87.88134       42.16724       30.22170
H         88.50108       38.99224       33.77454
H         90.29807       39.71746       32.61116
H         89.04279       39.05309       30.72608
H         90.05223       40.47398       30.31933
N         90.16530       41.95006       34.15936
C         90.70844       43.16487       34.77770
C         92.13401       43.40356       34.30111
O         93.05394       43.21693       35.08569
C         89.79600       44.41836       34.64351
C         90.37135       45.65150       35.39139
C         88.36155       44.12928       35.11344
C         90.57736       45.47277       36.90007
H         90.06976       41.14038       34.79188
H         90.77984       42.92906       35.86232
H         89.72993       44.70593       33.57519
H         89.67181       46.49878       35.23965
H         91.34845       45.93545       34.94535
H         87.73444       45.03994       34.99571
H         87.90754       43.32857       34.49748
H         88.33370       43.80821       36.17410
H         90.95121       46.42434       37.33408
H         89.62772       45.21156       37.40513
H         91.33105       44.68968       37.11666
N         92.39822       43.77116       33.01965
C         93.73890       43.84530       32.46795
C         94.58291       44.95452       33.08564
O         95.63591       44.61752       33.60785
C         93.69135       43.96271       30.92841
C         92.99077       42.77720       30.31362
O         91.98845       42.93792       29.63558
O         93.46629       41.53190       30.51011
H         91.61965       43.95112       32.38178
H         94.24615       42.87340       32.67309
H         94.72713       43.99359       30.52695
H         93.16747       44.88922       30.62375
N         94.28598       46.28998       33.04661
C         93.06184       46.90658       32.56129
C         93.26390       47.55113       31.20679
O         94.28320       47.28813       30.58287
H         94.99771       46.94287       33.41096
H         92.75579       47.66567       33.31055
H         92.24277       46.17816       32.48654
N         92.35351       48.39840       30.63802
C         91.15834       48.94328       31.29737
C         90.16483       47.86557       31.70481
O         90.28684       46.75935       31.20047
C         90.48911       49.96839       30.33685
C         89.96443       49.33813       29.06587
O         90.42611       49.66237       27.98334
O         88.96336       48.43741       29.11261
H         92.58137       48.73840       29.68933
H         91.50461       49.47446       32.20840
H         91.24799       50.73845       30.07352
H         89.64946       50.49906       30.81406
N         89.11390       48.07269       32.55849
C         88.79936       49.26910       33.33123
C         89.62345       49.39634       34.59244
O         90.63608       48.72666       34.73489
H         88.46181       47.28748       32.69686
H         87.75787       49.13438       33.69673
H         88.78606       50.19846       32.73513
N         89.19020       50.22313       35.59040
C         89.86978       50.38055       36.87349
C         88.99009       49.96497       38.05646
O         89.45388       50.09291       39.18046
C         90.28583       51.85391       37.05156
C         91.17264       52.35035       35.89850
C         91.60681       53.78601       36.06572
N         92.35615       54.37293       35.10541
O         91.28564       54.42779       37.05612
H         88.32766       50.76976       35.43547
H         90.78867       49.75423       36.91065
H         90.84692       51.95833       38.00745
H         89.37323       52.48931       37.10551
H         90.60527       52.27704       34.94616
H         92.07820       51.71011       35.82521
H         92.62901       53.84948       34.26058
H         92.65765       55.35365       35.20228
N         87.72651       49.46218       37.89641
C         86.84943       49.11480       39.02053
C         85.55478       49.92758       39.01190
O         84.75907       49.74605       39.92528
C         86.56481       47.59184       39.05698
C         87.85786       46.80589       39.30257
C         85.87440       47.08798       37.78814
H         87.35885       49.31741       36.94728
H         87.34056       49.36366       39.98716
H         85.88963       47.38298       39.91768
H         88.57992       46.98208       38.48069
H         88.32363       47.12469       40.25946
H         87.64255       45.71793       39.37056
H         84.92336       47.63717       37.62619
H         86.51879       47.20609       36.89243
H         85.64738       46.00917       37.90914
N         85.30317       50.88514       38.07179
C         84.16163       51.79224       38.13484
C         83.39873       51.87597       36.81653
O         82.73361       52.87997       36.59844
C         84.67515       53.18002       38.60086
C         85.68882       53.85894       37.70144
N         86.25040       55.02438       38.09614
O         86.01301       53.37137       36.62876
H         85.99752       51.05899       37.33468
H         83.43449       51.47935       38.91678
H         85.15090       53.03678       39.59596
H         83.81483       53.87013       38.74118
H         85.99596       55.45007       38.99963
H         86.94984       55.49646       37.50427
N         83.39402       50.85458       35.90627
C         82.72295       50.98820       34.61352
C         82.56379       49.64065       33.91023
O         83.55444       48.99824       33.59026
C         83.54721       51.94796       33.71855
C         83.03189       52.04325       32.29929
C         83.74380       51.40570       31.26858
C         81.85942       52.75140       31.98513
C         83.29095       51.46268       29.95093
C         81.41589       52.82244       30.65679
C         82.12661       52.17476       29.63809
O         81.68464       52.24133       28.36590
H         83.87856       49.97297       36.13231
H         81.70386       51.40459       34.77310
H         84.58273       51.54323       33.69469
H         83.61927       52.96744       34.15569
H         84.64478       50.84672       31.48782
H         81.29879       53.25854       32.76053
H         83.84788       50.95188       29.17566
H         80.51888       53.37994       30.41688
H         82.14857       51.80145       27.63837
N         81.30902       49.20432       33.57914
C         80.99783       48.05236       32.73423
C         81.39664       46.71014       33.33693
O         81.23717       45.70940       32.65423
C         81.57505       48.28266       31.30854
C         80.91339       47.39617       30.23098
C         81.41783       47.73457       28.85825
O         80.64505       48.13784       28.00367
O         82.71971       47.57482       28.55462
H         80.50215       49.77263       33.87664
H         79.89179       48.02750       32.61712
H         82.68009       48.15766       31.30429
H         81.34501       49.33226       31.02106
H         79.81302       47.55727       30.26270
H         81.10322       46.32160       30.39683
N         81.86046       46.57778       34.61505
C         82.29724       45.28975       35.14487
C         81.33519       44.74288       36.19582
O         81.58734       43.66167       36.70836
C         83.73180       45.45418       35.69055
C         84.54299       44.14798       35.72108
C         84.77171       43.65099       34.32057
O         84.34327       42.56280       33.97749
O         85.42474       44.42105       33.42822
H         81.91078       47.39787       35.23717
H         82.31984       44.54340       34.32454
H         83.66161       45.91063       36.69759
H         84.30132       46.15881       35.04370
H         84.03139       43.37716       36.33207
H         85.53612       44.33958       36.17742
N         80.19452       45.41108       36.54405
C         79.23604       44.90809       37.50871
H         78.25135       44.77932       37.01148
H         79.53661       43.93137       37.94222
H         79.12593       45.64046       38.33526
H         79.96550       46.31368       36.10571
Ca        85.67874       43.69270       31.30816
O         88.20074       44.93252       31.53061
H         87.61726       45.69418       31.29068
H         88.66902       44.70369       30.68937
O         83.55206       41.45279       31.01693
H         83.75132       41.00612       31.87748
H         82.93172       42.18718       31.25473
O         84.91497       42.74917       28.52610
H         84.46258       43.57433       28.21852
H         84.39671       42.01304       28.11454
O         86.52064       45.65440       28.80686
H         87.46230       45.95952       28.79325
H         86.00601       46.45532       29.07856
O         83.32425       45.09514       30.59075
H         83.66062       45.53683       31.41064
H         83.83643       45.51718       29.85749

Ca 1.0



