%chk=apoCaM-CA-Ng.loop1.water2.frame1286.chk
%nprocshared=20
%mem=10GB
%nosave
#b3lyp/svp scf=(tight,noincore,xqc) Test 
#IOP(5/87=12) Density=Current Pop=(MK,readradii) iop(6/33=2) iop(6/42=6)

apoCaM-CA-Ng.loop1.water2.frame1286 

   0  1 
C         70.33329       37.53094        8.58874
C         70.66688       38.98701        8.71589
O         69.88721       39.71112        9.31921
H         69.36853       37.42430        8.04673
H         71.11439       36.98290        8.02244
H         70.23325       37.08017        9.59729
N         71.78815       39.50005        8.12747
C         72.10144       40.92546        8.13075
C         71.89320       41.48068        6.73669
O         72.70148       42.24816        6.23395
C         73.51351       41.17689        8.70368
C         74.60148       40.44682        7.95101
O         74.81633       40.68244        6.77273
O         75.35307       39.52768        8.58520
H         72.39976       38.86758        7.58942
H         71.37615       41.47227        8.77055
H         73.52426       40.83039        9.75932
H         73.73190       42.26690        8.70192
N         70.77999       41.11001        6.05205
C         70.45077       41.60017        4.72753
C         70.18772       43.09402        4.76743
O         70.81235       43.78739        3.97559
C         69.30579       40.77508        4.09298
C         69.77656       39.31143        3.92253
C         68.78424       38.41727        3.17746
C         69.36490       36.99545        3.06233
N         68.46411       36.10395        2.33595
H         70.13989       40.43384        6.49129
H         71.32319       41.43321        4.05435
H         69.08741       41.19261        3.08540
H         68.37737       40.82219        4.70120
H         69.97276       38.85983        4.91797
H         70.72886       39.30884        3.34638
H         68.60811       38.82958        2.15992
H         67.81968       38.38442        3.72818
H         69.54155       36.58427        4.08190
H         70.34304       37.03203        2.53081
H         68.32840       36.45081        1.35888
H         68.89021       35.14919        2.29916
H         67.54294       36.04525        2.82671
N         69.37234       43.72466        5.66410
C         68.58963       43.11872        6.74410
C         69.15607       43.49646        8.11334
O         70.13803       44.21758        8.20046
C         67.09039       43.45812        6.58618
C         66.80944       44.81554        6.00367
O         67.26654       45.96966        6.53074
O         66.18991       44.87011        4.95301
H         69.34754       44.75376        5.60399
H         68.64273       42.01978        6.73188
H         66.53309       43.30583        7.53317
H         66.66663       42.72730        5.85960
N         68.60937       42.93793        9.23389
C         69.13542       43.06549       10.58659
C         69.12077       44.47148       11.12774
O         68.13421       45.17057       10.95540
H         67.79381       42.31765        9.12256
H         70.15595       42.63185       10.64587
H         68.49114       42.46054       11.25132
N         70.18319       44.94235       11.84014
C         70.24959       46.29634       12.37758
C         70.44761       46.28489       13.88211
O         71.37152       45.62729       14.34299
C         71.38218       47.05864       11.66637
C         71.03306       47.08596       10.20715
O         69.82079       47.56207        9.86582
O         71.74150       46.53675        9.37933
H         70.99954       44.32671       11.98351
H         69.31185       46.83380       12.14879
H         72.36148       46.55711       11.83606
H         71.44139       48.09977       12.05157
N         69.67030       47.01471       14.73787
C         68.64149       47.95566       14.31499
C         67.26904       47.32739       14.20092
O         67.08533       46.16769       14.53815
H         69.91557       47.00753       15.74040
H         68.95034       48.50544       13.40214
H         68.55135       48.74536       15.09274
N         66.22828       48.11417       13.80450
C         64.81898       47.73633       13.92402
C         64.34892       46.56084       13.07362
O         63.19971       46.18242       13.25632
C         63.90869       48.96048       13.60696
C         63.95676       49.35587       12.11744
O         64.29639       50.04849       14.40689
H         66.45657       49.08129       13.52880
H         64.65598       47.46387       14.99092
H         62.85795       48.68810       13.86108
H         63.62279       50.76514       14.26991
H         64.98313       49.62662       11.80480
H         63.59690       48.52366       11.47648
H         63.29766       50.22877       11.93643
N         65.10624       45.97802       12.09653
C         64.54390       44.98049       11.18196
C         64.60100       45.54485        9.77413
O         65.68572       45.80559        9.27399
C         65.24327       43.59441       11.28982
C         65.18585       43.08830       12.75480
C         64.57204       42.59466       10.32241
C         65.85717       41.73202       12.98394
H         66.07256       46.29661       11.94420
H         63.47775       44.79160       11.43128
H         66.29903       43.68509       10.98973
H         64.12765       43.01672       13.08691
H         65.70660       43.82281       13.40623
H         64.62182       42.96088        9.27602
H         65.08942       41.61519       10.32817
H         63.50489       42.44532       10.59344
H         66.92191       41.76539       12.68606
H         65.80795       41.47612       14.06276
H         65.34248       40.92350       12.42712
N         63.44525       45.75416        9.08209
C         63.38818       46.27983        7.72201
C         62.60203       47.58774        7.64198
O         62.45691       48.09741        6.53967
C         62.76294       45.22160        6.77678
C         61.31370       44.85814        7.12877
O         63.54137       44.05138        6.80475
H         62.55504       45.51697        9.54250
H         64.40963       46.48359        7.34308
H         62.74719       45.65186        5.74464
H         63.94247       43.93472        5.90494
H         60.66648       45.76041        7.12431
H         60.91663       44.14401        6.37757
H         61.25064       44.37252        8.12396
N         62.02760       48.16921        8.73802
C         61.14891       49.33402        8.64280
C         61.90097       50.55055        8.12199
O         62.75260       51.07222        8.82870
C         60.50105       49.61783       10.02114
C         59.53074       50.79921        9.99411
O         59.80418       48.47046       10.44162
H         62.15679       47.73525        9.66215
H         60.33134       49.07260        7.93416
H         61.31850       49.85614       10.74067
H         59.97791       48.35492       11.41256
H         59.10649       50.94776       11.01010
H         60.05312       51.73343        9.69985
H         58.70195       50.60183        9.28269
N         61.65122       51.02475        6.86183
C         62.33732       52.15970        6.23922
C         63.83658       52.02106        6.42328
O         64.49265       52.90999        6.94924
C         61.77424       53.49532        6.75830
C         60.27120       53.60553        6.45314
C         59.69788       54.94027        6.93256
C         58.19155       55.01781        6.64866
N         57.63184       56.27488        7.14187
H         60.98230       50.50748        6.27126
H         62.13186       52.12714        5.14502
H         62.30288       54.33059        6.24702
H         61.94473       53.58081        7.85332
H         59.73019       52.77918        6.96400
H         60.10812       53.51221        5.35584
H         60.21561       55.77590        6.41168
H         59.86874       55.03648        8.02651
H         57.67486       54.16899        7.15021
H         58.01229       54.93795        5.55281
H         57.76625       56.34320        8.17701
H         58.09537       57.08535        6.67080
H         56.60782       56.29919        6.93224
N         64.40828       50.83736        6.09220
C         65.77253       50.46620        6.42463
C         65.88467       48.95516        6.33237
O         66.10020       48.35502        7.37502
C         66.83197       51.25045        5.61704
C         68.27384       50.81105        5.94033
C         68.60525       50.95697        7.40043
O         68.94004       49.98134        8.05331
O         68.53192       52.16242        7.99587
H         63.77963       50.11517        5.71406
H         65.92942       50.71919        7.49899
H         66.73132       52.33348        5.83917
H         66.66488       51.14013        4.53101
H         68.98185       51.43295        5.35279
H         68.41593       49.75214        5.63008
N         65.68415       48.22881        5.19308
C         65.46454       48.74990        3.86282
H         64.57684       49.40603        3.81625
H         66.36916       49.27375        3.50445
H         65.29001       47.90213        3.16563
H         65.67752       47.20939        5.27417
Ca        68.55363       46.63660        8.25251
O         70.40655       47.41592        6.22025
H         70.94015       46.58886        6.32969
H         70.28750       47.51128        5.24254
O         67.14244       48.83883       10.40237
H         67.80449       49.36792       10.91447
H         66.60394       49.51629        9.92116

Ca 1.0



