%chk=apoCaM-CA-Ng.loop2.water3.frame47.chk
%nprocshared=20
%mem=10GB
%nosave
#b3lyp/svp scf=(tight,noincore,xqc) Test 
#IOP(5/87=12) Density=Current Pop=(MK,readradii) iop(6/33=2) iop(6/42=6)

apoCaM-CA-Ng.loop2.water3.frame47 

   -2  1 
C         58.63329       43.77609       62.01286
C         60.09862       43.60102       62.29392
O         60.91809       44.16734       61.58571
H         58.16471       42.79106       61.80849
H         58.14178       44.23143       62.89993
H         58.46992       44.44358       61.14008
N         60.49215       42.83882       63.35089
C         61.88035       42.67493       63.77442
C         62.28855       41.20669       63.76307
O         63.34604       40.90112       63.23154
C         62.04069       43.30417       65.16697
C         63.47955       43.34252       65.61129
O         64.03198       44.41523       65.79792
O         64.16552       42.20138       65.81238
H         59.75274       42.40094       63.92059
H         62.56511       43.23511       63.09669
H         61.42680       42.76175       65.91679
H         61.66796       44.35196       65.10788
N         61.48071       40.23922       64.29350
C         61.76182       38.80449       64.25786
C         62.16258       38.35210       62.85968
O         63.16589       37.67282       62.68782
C         62.79102       38.42996       65.32700
H         60.56893       40.51524       64.68396
H         60.81805       38.27656       64.52331
H         63.76405       38.92598       65.13197
H         62.41829       38.74595       66.32499
H         62.93668       37.32838       65.34603
N         61.42352       38.76902       61.79899
C         61.70438       38.47584       60.40266
C         63.11343       38.90520       60.00571
O         63.87125       38.09783       59.48265
C         61.40710       36.98754       60.09151
C         61.11479       36.83412       58.63023
O         61.75705       36.08739       57.91011
O         60.07934       37.55323       58.15936
H         60.61358       39.38089       61.98512
H         60.98583       39.09972       59.82543
H         60.46896       36.69055       60.60910
H         62.21937       36.31892       60.45271
N         63.54804       40.16884       60.27581
C         64.90559       40.60490       59.99276
C         65.12022       40.75034       58.51078
O         65.91883       40.01892       57.94307
H         62.91218       40.82544       60.75057
H         65.62182       39.88035       60.44168
H         65.09211       41.59483       60.46177
N         64.43330       41.70700       57.82542
C         64.52291       41.89993       56.38414
C         65.11255       43.25865       56.05854
O         64.62129       44.27330       56.53134
C         63.12817       41.73587       55.75936
C         62.64226       40.31837       55.92929
N         63.31919       39.29055       55.36332
O         61.63538       40.09413       56.58299
H         63.79824       42.32609       58.35405
H         65.18696       41.13646       55.92811
H         63.16877       41.95801       54.67122
H         62.42091       42.45253       56.23434
H         64.16317       39.45756       54.79586
H         63.00103       38.32108       55.48921
N         66.18933       43.32778       55.22582
C         66.89090       44.54397       54.86058
C         66.03358       45.54360       54.11956
O         65.39997       45.18294       53.13713
H         66.56101       42.45221       54.82643
H         67.71912       44.26150       54.17402
H         67.34949       44.99979       55.76321
N         66.06091       46.85873       54.48620
C         65.40304       47.91546       53.71664
C         63.88635       47.92560       53.88434
O         63.23204       48.68331       53.18295
C         66.00539       49.31089       54.04409
C         65.72700       49.79918       55.47572
O         67.38600       49.32649       53.76702
H         66.67124       47.11661       55.27416
H         65.63022       47.73381       52.64140
H         65.53732       50.05550       53.36382
H         67.86296       48.86922       54.50740
H         64.63721       49.90043       55.63638
H         66.14138       49.10694       56.23681
H         66.18576       50.79912       55.62359
N         63.26211       47.12342       54.79326
C         61.81335       47.05936       54.96931
C         61.33251       45.66195       54.61155
O         62.14067       44.82301       54.23777
C         61.40950       47.43217       56.43482
C         62.04745       46.48004       57.48245
C         61.73500       48.90434       56.73138
C         61.40046       46.58599       58.86331
H         63.82919       46.50177       55.38190
H         61.29152       47.76141       54.28205
H         60.30735       47.33994       56.51397
H         63.13850       46.67407       57.56544
H         61.90821       45.42562       57.16417
H         62.82752       49.07508       56.70424
H         61.24637       49.56249       55.98114
H         61.35716       49.20825       57.72814
H         61.50456       47.60038       59.29478
H         60.32232       46.32354       58.79362
H         61.89001       45.86540       59.55129
N         60.01778       45.33249       54.75516
C         59.51153       43.98346       54.56375
C         58.33792       43.96751       53.57513
O         57.72110       42.92455       53.40751
C         59.17644       43.44071       55.97173
C         58.99014       41.95045       56.05689
O         58.79830       41.38686       57.26405
O         59.06524       41.23865       55.06892
H         59.35132       46.03963       55.09704
H         60.30879       43.32318       54.15839
H         58.29990       43.97311       56.39634
H         60.05055       43.65141       56.62832
N         58.00963       45.07099       52.83335
C         56.94924       45.07687       51.82942
C         55.57614       44.93804       52.48674
O         55.27320       45.74848       53.35228
C         56.96197       46.40398       51.03306
C         55.91250       46.37378       49.94539
C         56.11349       45.61448       48.77890
C         54.70446       47.07114       50.11091
C         55.11823       45.55312       47.79795
C         53.70758       46.99595       49.13460
C         53.91399       46.23859       47.97879
H         58.56844       45.93074       52.93277
H         57.16070       44.26119       51.10808
H         57.95669       46.59936       50.57496
H         56.76076       47.23701       51.74244
H         57.03732       45.06840       48.63179
H         54.52345       47.64909       51.00832
H         55.27641       44.96736       46.90146
H         52.77165       47.51949       49.27864
H         53.13931       46.18070       47.22526
N         54.65917       43.99830       52.09433
C         53.31001       43.88167       52.63807
C         53.28040       43.79066       54.14564
O         52.50122       44.49161       54.77543
C         52.78750       42.58016       52.01917
C         53.45348       42.60337       50.66635
C         54.86933       43.03574       51.03071
H         52.70413       44.74748       52.28503
H         53.20728       41.70015       52.55836
H         51.67999       42.49447       52.00806
H         53.39340       41.66193       50.08184
H         52.97771       43.42196       50.07576
H         55.48770       42.19987       51.42473
H         55.32463       43.46444       50.11860
N         54.15217       42.96565       54.78592
C         54.22945       42.82403       56.23482
C         54.42396       44.18233       56.88149
O         53.63610       44.54393       57.74516
C         55.39016       41.88460       56.61945
C         55.19950       40.44941       56.08882
C         56.37752       39.59778       56.44642
O         56.65946       39.40917       57.61972
O         57.15101       39.05582       55.48250
H         54.82494       42.44982       54.20071
H         53.28414       42.37942       56.61987
H         55.47184       41.84475       57.72878
H         56.33307       42.30509       56.21476
H         55.10167       40.44428       54.98543
H         54.27959       40.00312       56.52326
N         55.42414       45.01144       56.47658
C         55.59415       46.33506       57.03464
H         56.42934       46.85811       56.52269
H         54.66556       46.92941       56.88907
H         55.82111       46.26426       58.11894
H         56.06184       44.71049       55.72502
Ca        58.95656       37.97505       56.27096
O         58.14927       35.22695       55.85248
H         57.33162       35.78612       55.85612
H         58.35904       35.10198       54.89305
O         59.68593       38.91597       53.19225
H         60.41413       39.58370       53.25847
H         60.00958       38.26202       52.52310
O         61.23700       36.59588       54.47557
H         62.17752       36.34311       54.29907
H         61.18120       36.66005       55.46078

Ca 1.0



