%chk=apoCaM-CA-Ng.loop3.water4.frame1007.chk
%nprocshared=20
%mem=10GB
%nosave
#b3lyp/svp scf=(tight,noincore,xqc) Test 
#IOP(5/87=12) Density=Current Pop=(MK,readradii) iop(6/33=2) iop(6/42=6)

apoCaM-CA-Ng.loop3.water4.frame1007 

   0  1 
C         28.35090       45.68039       12.05445
C         28.07534       46.82773       11.12636
O         27.55663       47.83665       11.58324
H         29.03923       46.00618       12.86172
H         27.39582       45.33950       12.50903
H         28.80780       44.82256       11.51837
N         28.38206       46.74229        9.79864
C         28.07612       47.80784        8.84727
C         26.58911       48.13735        8.87343
O         26.25449       49.29187        9.09638
C         28.63374       47.52009        7.42884
C         28.27315       46.22754        6.73386
O         28.69761       46.03149        5.60670
O         27.55513       45.26040        7.32907
H         28.83519       45.88211        9.45616
H         28.61201       48.73059        9.16972
H         29.74380       47.53018        7.49834
H         28.33221       48.36677        6.77574
N         25.64445       47.16062        8.79153
C         24.23334       47.41266        9.05482
C         23.60646       48.21247        7.93436
O         23.50405       47.70678        6.82461
C         23.45314       46.09254        9.23413
C         24.00998       45.22808       10.37934
C         23.24095       43.91024       10.48908
C         23.88020       42.99561       11.54094
N         23.16832       41.72212       11.62499
H         25.95363       46.19488        8.66433
H         24.15722       47.96764       10.01785
H         23.50029       45.51054        8.28700
H         22.38725       46.32950        9.45003
H         23.95277       45.78453       11.34043
H         25.07248       44.97729       10.18778
H         23.26988       43.38952        9.50643
H         22.18112       44.11787       10.75371
H         23.86710       43.49635       12.53417
H         24.94026       42.79933       11.26094
H         23.63903       41.11423       12.33332
H         22.17762       41.88438       11.91734
H         23.18886       41.23770       10.69783
N         23.16669       49.48067        8.15892
C         22.54818       50.29714        7.11840
C         23.59676       51.07900        6.36001
O         24.76034       51.05093        6.73502
C         21.39358       51.17362        7.66851
C         21.76972       52.07541        8.81154
O         22.05364       51.54481       10.01475
O         21.72569       53.28873        8.68474
H         23.38531       49.89932        9.07102
H         22.09424       49.62753        6.35571
H         20.56948       50.52166        8.02658
H         20.98801       51.79059        6.83889
N         23.25271       51.74807        5.22155
C         24.22138       52.42099        4.37890
C         25.15131       51.40608        3.73402
O         24.65345       50.60260        2.95796
H         22.26708       51.76090        4.92012
H         24.72293       53.21117        4.96532
H         23.69424       52.94602        3.55267
N         26.49788       51.34589        3.95860
C         27.21809       52.16629        4.92777
C         28.30825       51.35364        5.62547
O         28.87451       50.47027        4.99806
C         27.69762       53.48641        4.29840
C         28.77950       53.32583        3.26236
N         29.95426       53.98613        3.39572
O         28.58837       52.62086        2.28302
H         27.02826       50.63233        3.43373
H         26.51278       52.45735        5.71403
H         28.05643       54.15928        5.10447
H         26.82497       53.98352        3.82256
H         30.12525       54.60490        4.20252
H         30.69085       53.89649        2.68107
N         28.64507       51.53466        6.93558
C         28.09015       52.58663        7.77498
C         28.58790       52.53864        9.19901
O         29.26874       51.59549        9.58490
H         29.35696       50.89741        7.32648
H         26.98606       52.51297        7.82403
H         28.37986       53.56518        7.33718
N         28.29890       53.56843       10.04165
C         28.77809       53.62297       11.41616
C         27.66574       54.02074       12.37287
O         26.65755       54.56840       11.94087
C         29.95741       54.62276       11.44622
C         30.66776       54.77093       12.76954
C         30.82123       56.04274       13.34884
C         31.22053       53.65344       13.41712
C         31.51316       56.19234       14.55396
C         31.90107       53.80391       14.62827
C         32.05287       55.07549       15.19905
O         32.71806       55.23602       16.36048
H         27.79478       54.38657        9.66089
H         29.14724       52.62024       11.71988
H         29.59634       55.61477       11.09195
H         30.71423       54.26751       10.71326
H         30.41983       56.92327       12.86210
H         31.12309       52.66495       12.98820
H         31.63448       57.17895       14.98363
H         32.31455       52.93198       15.11842
H         33.11056       54.48956       16.83526
N         27.80013       53.79172       13.71031
C         26.85457       54.30026       14.70023
C         26.81595       55.81386       14.63710
O         27.84890       56.44104       14.44695
C         27.14074       53.83147       16.16575
C         26.65730       52.37577       16.37294
C         28.60938       54.03110       16.60176
C         26.71130       51.91527       17.83210
H         28.62286       53.26317       14.02321
H         25.83475       53.93825       14.44395
H         26.50065       54.45720       16.82911
H         27.23016       51.67201       15.73272
H         25.58612       52.32758       16.07842
H         29.29454       53.34259       16.06702
H         28.93828       55.07486       16.42806
H         28.72884       53.82695       17.68447
H         26.25453       50.90673       17.91847
H         27.75543       51.84901       18.19688
H         26.13656       52.61368       18.47878
N         25.63458       56.46176       14.82906
C         25.49127       57.90830       14.77354
C         24.36701       58.31448       13.83846
O         23.54941       57.48168       13.47811
C         25.17948       58.41916       16.19024
O         24.00601       57.81786       16.67128
H         24.80370       55.90256       15.06727
H         26.43323       58.37881       14.41889
H         25.05603       59.52382       16.18018
H         26.02995       58.14806       16.85464
H         23.89400       58.12157       17.60859
N         24.21796       59.62635       13.49104
C         23.02485       60.17763       12.85649
C         21.87137       59.94670       13.80818
O         20.87037       59.35224       13.43401
C         22.77632       59.60644       11.45018
H         24.94287       60.29695       13.78814
H         23.16662       61.27567       12.74798
H         22.55790       58.52234       11.48172
H         21.89663       60.10839       10.99208
H         23.65790       59.78028       10.79926
N         22.01346       60.36660       15.10232
C         21.13934       60.07378       16.23409
C         20.22284       58.87567       16.02129
O         19.01453       58.98899       16.17795
C         20.40751       61.35656       16.63651
H         22.85954       60.91104       15.33456
H         21.79597       59.77021       17.07939
H         21.14496       62.16182       16.84641
H         19.74719       61.69203       15.80800
H         19.79922       61.19157       17.54966
N         20.76026       57.67856       15.64032
C         19.95606       56.49471       15.37469
C         19.47323       55.89014       16.68209
O         18.27604       55.70647       16.84738
C         20.71808       55.48238       14.46733
C         21.84009       54.68229       15.15266
C         22.68504       53.83356       14.20360
O         23.48249       54.64339       13.39401
O         21.90522       53.03662       13.35782
H         21.77273       57.63504       15.46044
H         19.08850       56.80491       14.74804
H         21.12281       56.04896       13.59957
H         19.98583       54.74566       14.06868
H         21.37805       53.99298       15.89018
H         22.54031       55.36194       15.67562
N         20.36768       55.57498       17.66604
C         20.01186       54.95418       18.92364
H         18.92524       54.74859       19.00236
H         20.56011       53.99193       19.01776
H         20.31707       55.61700       19.76011
H         21.36621       55.78498       17.53009
Ca        23.15871       53.47750       11.50340
O         25.74243       51.54701       10.99670
H         26.00770       51.73579       10.06306
H         26.53023       51.09717       11.39369
O         24.20307       51.00323       13.43960
H         24.60518       50.14330       13.15962
H         24.87886       51.40776       14.03787
O         25.04249       54.21036        8.94463
H         24.74136       53.33865        8.58516
H         25.40925       54.68989        8.15998
O         23.82573       56.31966       10.73236
H         23.45317       56.70035        9.89868
H         23.02921       56.14944       11.29459

Ca 1.0



