%chk=apoCaM-CA-Ng.loop2.water4.frame1404.chk
%nprocshared=20
%mem=10GB
%nosave
#b3lyp/svp scf=(tight,noincore,xqc) Test 
#IOP(5/87=12) Density=Current Pop=(MK,readradii) iop(6/33=2) iop(6/42=6)

apoCaM-CA-Ng.loop2.water4.frame1404 

   -2  1 
C         41.30878       83.03619       73.87560
C         41.63657       81.69015       73.28125
O         42.48130       81.64037       72.39948
H         40.23538       83.27174       73.71274
H         41.53289       83.03746       74.96320
H         41.91272       83.83686       73.39810
N         41.02488       80.53444       73.67880
C         39.99565       80.46434       74.71496
C         38.64645       80.02098       74.16772
O         37.67976       80.08312       74.91522
C         40.43859       79.54530       75.87594
C         40.38234       78.04830       75.53730
O         40.68186       77.28811       76.67191
O         41.30275       77.69523       74.54528
H         41.31162       79.66717       73.20357
H         39.83865       81.47145       75.14688
H         39.72899       79.69993       76.71796
H         41.45102       79.83689       76.23254
N         38.50118       79.52960       72.90091
C         37.22369       79.09489       72.35609
C         37.16202       77.58500       72.18141
O         36.12882       77.11256       71.72683
C         36.98428       79.81058       71.02257
H         39.32269       79.42519       72.28946
H         36.39041       79.36348       73.04126
H         35.99814       79.52691       70.59721
H         36.99462       80.91069       71.17569
H         37.77822       79.54438       70.29119
N         38.18994       76.75711       72.54815
C         38.11388       75.30251       72.43120
C         38.18868       74.62813       73.79402
O         38.40716       75.28597       74.80264
C         39.18759       74.78530       71.45107
C         40.59098       75.15230       71.85221
O         41.27542       75.84372       71.11465
O         41.10597       74.71207       73.01498
H         39.05449       77.15484       72.94101
H         37.12850       75.00626       72.01100
H         38.97382       75.21793       70.44867
H         39.11843       73.68073       71.35717
N         37.93071       73.29309       73.88203
C         37.84310       72.54852       75.12639
C         39.16120       72.36014       75.83913
O         40.18203       72.89119       75.42579
H         37.69653       72.78147       73.01823
H         37.46329       71.53170       74.88864
H         37.10847       73.03414       75.80650
N         39.18405       71.56593       76.94672
C         40.37233       71.30586       77.75344
C         41.45352       70.63349       76.91706
O         42.55214       71.16075       76.82964
C         39.97636       70.44375       78.98307
C         41.01099       70.43018       80.08668
N         42.24409       69.90366       79.90981
O         40.71510       70.89986       81.17621
H         38.29032       71.13814       77.23872
H         40.74096       72.28013       78.14116
H         39.71986       69.40648       78.67636
H         39.05598       70.88919       79.42448
H         42.52627       69.48294       79.01574
H         42.92353       69.91143       80.68548
N         41.20313       69.45415       76.27945
C         42.18356       68.71765       75.48774
C         42.62374       69.43879       74.22036
O         42.21215       70.57065       74.01203
H         40.26725       69.03207       76.38033
H         41.69932       67.76995       75.17554
H         43.06556       68.47140       76.11612
N         43.41606       68.84556       73.26956
C         43.90641       67.46559       73.32905
C         45.41268       67.32862       73.08510
O         45.88409       66.20266       73.16415
C         43.16613       66.59626       72.27222
C         41.64614       66.55598       72.48012
O         43.47654       67.00526       70.96148
H         43.60716       69.38712       72.41238
H         43.70177       67.02759       74.32661
H         43.51662       65.54592       72.37944
H         43.01669       67.86647       70.78661
H         41.40652       66.15238       73.48543
H         41.20256       67.56881       72.37713
H         41.18411       65.89082       71.72013
N         46.22011       68.37611       72.73235
C         47.62869       68.21347       72.35736
C         48.51416       69.06929       73.26146
O         48.28420       70.26973       73.31084
C         47.82986       68.62324       70.86504
C         46.95255       67.79309       69.88779
C         49.31282       68.54554       70.44592
C         47.26098       66.28996       69.84110
H         45.82426       69.32394       72.66401
H         47.93086       67.15891       72.41911
H         47.51545       69.68532       70.75383
H         47.08744       68.19792       68.86094
H         45.88358       67.92562       70.15311
H         49.93058       69.22401       71.06589
H         49.71936       67.52066       70.56435
H         49.43116       68.86164       69.38779
H         47.09597       65.80784       70.82405
H         46.58576       65.80098       69.10833
H         48.30322       66.10137       69.51228
N         49.59763       68.58609       73.94818
C         50.02947       67.19044       73.97953
C         51.48626       67.06984       74.41743
O         51.85234       67.55860       75.47563
C         49.09061       66.32361       74.85862
C         48.90772       66.81216       76.27271
O         49.93823       66.83704       77.13710
O         47.79871       67.14717       76.65838
H         50.18129       69.27837       74.44439
H         50.00023       66.77695       72.95053
H         49.46419       65.27666       74.87690
H         48.08968       66.29242       74.39534
N         52.36528       66.37343       73.63647
C         53.75118       66.10646       73.99594
C         54.67638       66.52463       72.85663
O         54.49801       66.01636       71.75966
C         53.87566       64.59364       74.30795
C         55.28744       64.11318       74.57343
C         56.15572       63.84615       73.49794
C         55.73822       63.88004       75.88459
C         57.44633       63.36493       73.72790
C         57.03648       63.40602       76.11099
C         57.88841       63.14753       75.03354
H         52.01889       65.93847       72.76782
H         54.01147       66.63317       74.93078
H         53.44947       63.97108       73.49086
H         53.24475       64.40348       75.20519
H         55.83071       63.98829       72.47695
H         55.09019       64.06864       76.73096
H         58.10055       63.15402       72.89140
H         57.38212       63.23301       77.12184
H         58.88887       62.77292       75.20849
N         55.72785       67.39110       73.03075
C         56.08115       68.06014       74.26946
C         55.34447       69.38381       74.44049
O         55.45494       69.95912       75.51269
C         57.57984       68.32433       74.08658
C         57.65166       68.67673       72.61061
C         56.72304       67.62822       71.99939
H         55.96299       67.41646       75.16632
H         58.01711       69.07485       74.78062
H         58.12462       67.36198       74.22261
H         57.19045       69.68113       72.48228
H         58.66914       68.70664       72.16776
H         56.28945       67.99693       71.04528
H         57.26816       66.67374       71.82827
N         54.66621       69.97980       73.40849
C         54.09554       71.31914       73.52750
C         55.22080       72.30585       73.85109
O         56.10646       72.43654       73.01668
C         53.42866       71.78031       72.20676
C         52.23222       70.92178       71.77633
C         51.65198       71.45429       70.49439
O         51.63104       70.75786       69.49202
O         51.15415       72.70510       70.44389
H         54.60916       69.50163       72.49982
H         53.30739       71.28736       74.29567
H         54.18429       71.77713       71.38845
H         53.07156       72.82608       72.34444
H         51.44805       70.94091       72.56275
H         52.55047       69.86917       71.62233
N         55.32019       73.03180       75.00598
C         54.42066       72.99816       76.14291
H         53.57047       72.30869       76.04173
H         54.99228       72.68446       77.04179
H         54.01668       74.01621       76.31863
H         56.13148       73.66280       75.10102
Ca        42.39039       76.11720       75.75116
O         43.28959       73.28061       75.01638
H         43.15862       73.12406       74.04805
H         44.11105       72.77562       75.24067
O         44.52965       76.18015       73.62192
H         44.82161       75.27702       73.90349
H         43.77628       76.01506       73.00092
O         39.94542       74.81296       77.92933
H         40.31181       74.66342       78.83675
H         39.10491       75.31403       78.07862
O         43.30668       74.51029       78.15821
H         43.98032       75.15293       77.82056
H         43.65145       73.62408       77.88348

Ca 1.0



