%chk=apoCaM-CA-Ng.loop2.water4.frame709.chk
%nprocshared=20
%mem=10GB
%nosave
#b3lyp/svp scf=(tight,noincore,xqc) Test 
#IOP(5/87=12) Density=Current Pop=(MK,readradii) iop(6/33=2) iop(6/42=6)

apoCaM-CA-Ng.loop2.water4.frame709 

   -2  1 
C         92.99769        1.30911      -20.73757
C         94.24682        1.49499      -21.55389
O         94.20433        2.20677      -22.54685
H         92.20386        0.85909      -21.37081
H         93.17297        0.63531      -19.87179
H         92.64558        2.28938      -20.35486
N         95.40052        0.86221      -21.20203
C         96.63435        0.95746      -21.97488
C         97.17593        2.37608      -21.98578
O         97.44897        2.91909      -20.92384
C         97.69836        0.00759      -21.38565
C         98.98091        0.04344      -22.17211
O         98.98891       -0.26353      -23.35364
O        100.12702        0.42113      -21.57426
H         95.38747        0.25662      -20.36623
H         96.42461        0.61778      -23.01389
H         97.30798       -1.03307      -21.39497
H         97.90663        0.28995      -20.32982
N         97.41559        3.01197      -23.16951
C         98.03809        4.33012      -23.24353
C         97.16756        5.38519      -22.57407
O         95.95545        5.21659      -22.56936
C         98.31443        4.71084      -24.70250
H         97.19616        2.51601      -24.04729
H         99.01406        4.24873      -22.71918
H         98.82894        5.69221      -24.76645
H         98.97398        3.94651      -25.16824
H         97.36709        4.76469      -25.27912
N         97.67828        6.46684      -21.91185
C         99.09553        6.82686      -21.86004
C         99.73614        6.37106      -20.56223
O         99.04437        5.88416      -19.68178
C         99.27887        8.34054      -22.13194
C         98.66086        9.26866      -21.10985
O         98.74359       10.47508      -21.27247
O         98.02601        8.80086      -20.01932
H         97.00792        7.05896      -21.40029
H         99.64493        6.30202      -22.66338
H         98.83034        8.57019      -23.12281
H        100.36285        8.57642      -22.18754
N        101.08970        6.44634      -20.41415
C        101.79856        5.97849      -19.23143
C        102.74547        4.84245      -19.57726
O        102.78949        4.43479      -20.72866
H        101.65495        6.82924      -21.18694
H        101.09624        5.63510      -18.44728
H        102.38307        6.83132      -18.82776
N        103.58062        4.28222      -18.65067
C        103.63444        4.68667      -17.24748
C        102.42035        4.18510      -16.46947
O        101.60449        3.46326      -17.02951
C        104.94535        4.19187      -16.58331
C        104.98770        2.70214      -16.31965
N        105.11210        2.23866      -15.05244
O        104.91438        1.91030      -17.24653
H        104.24813        3.57274      -18.99128
H        103.68512        5.79644      -17.21444
H        105.06674        4.72506      -15.61701
H        105.81160        4.48434      -17.21630
H        105.17904        2.88775      -14.25435
H        105.14216        1.22609      -14.86396
N        102.26991        4.49393      -15.15036
C        101.19894        3.97264      -14.31111
C        100.35644        5.05809      -13.66376
O         99.51571        4.71638      -12.84498
H        102.97574        5.09515      -14.69753
H        101.67660        3.38137      -13.49941
H        100.52796        3.28696      -14.87108
N        100.53060        6.38107      -13.95173
C         99.81780        7.45446      -13.26107
C         98.31722        7.41071      -13.49307
O         97.87399        7.48593      -14.63013
C        100.36498        8.83091      -13.70437
C         99.64133        9.99042      -13.00283
O        101.73428        8.88925      -13.39896
H        101.23553        6.64680      -14.65355
H        100.02721        7.36075      -12.17179
H        100.21675        8.92879      -14.80384
H        102.12489        9.60584      -13.96321
H         99.73868        9.89860      -11.90041
H        100.07523       10.95755      -13.32881
H         98.56329       10.00371      -13.26878
N         97.47655        7.37087      -12.42106
C         96.02677        7.48036      -12.53132
C         95.65220        8.88535      -13.01656
O         95.88475        9.84757      -12.29822
C         95.35788        7.15712      -11.15200
C         93.82452        7.41148      -11.15672
C         95.65968        5.69148      -10.76060
C         93.18423        7.25351       -9.77196
H         97.89426        7.29043      -11.48184
H         95.67518        6.71854      -13.25169
H         95.80719        7.83494      -10.39177
H         93.31958        6.73716      -11.88183
H         93.62590        8.45959      -11.46377
H         95.18669        4.99369      -11.48547
H         96.74843        5.48510      -10.74436
H         95.28904        5.45509       -9.74429
H         93.67662        7.93265       -9.04217
H         92.10790        7.51933       -9.82591
H         93.24992        6.21164       -9.40084
N         95.03187        9.05722      -14.21957
C         94.51439       10.31446      -14.73804
C         92.99226       10.26048      -14.91063
O         92.45030       11.23737      -15.40964
C         95.17369       10.61912      -16.10003
C         96.65752       10.81202      -15.97663
O         97.42456       10.09771      -16.59892
O         97.14868       11.79746      -15.20182
H         94.90356        8.24942      -14.82542
H         94.73220       11.15603      -14.04371
H         94.75347       11.55801      -16.52136
H         94.95064        9.79331      -16.81266
N         92.22471        9.20270      -14.48401
C         90.76574        9.19406      -14.59228
C         90.25694        7.87314      -15.20494
O         89.52459        7.15764      -14.53850
C         90.17393        9.43271      -13.18044
C         88.69721        9.75683      -13.23310
C         88.26936       10.99042      -13.75958
C         87.73834        8.84965      -12.75229
C         86.90867       11.30822      -13.80303
C         86.37646        9.16510      -12.81341
C         85.96232       10.39398      -13.33499
H         92.66584        8.41407      -13.99112
H         90.42483       10.03530      -15.23235
H         90.67821       10.29415      -12.68910
H         90.37925        8.53815      -12.55168
H         88.99060       11.71245      -14.12312
H         88.04206        7.89388      -12.34501
H         86.58795       12.26354      -14.19937
H         85.64108        8.45691      -12.45494
H         84.90860       10.63885      -13.37495
N         90.58474        7.47486      -16.47384
C         90.10474        6.24523      -17.10960
C         90.31339        4.98859      -16.27632
O         89.37540        4.22570      -16.08976
C         90.93984        6.16847      -18.39650
C         91.10343        7.62935      -18.74171
C         91.41229        8.24293      -17.37721
H         89.02602        6.37172      -17.35461
H         91.96330        5.78946      -18.17510
H         90.49677        5.53048      -19.19097
H         91.84910        7.85485      -19.53229
H         90.10655        7.99967      -19.07497
H         92.47508        8.11030      -17.07896
H         91.14594        9.32069      -17.41043
N         91.53340        4.73832      -15.73001
C         91.88102        3.56113      -14.93616
C         90.89412        3.37286      -13.80470
O         90.27034        2.32350      -13.72885
C         93.31702        3.59859      -14.31764
C         94.48326        3.85976      -15.29269
C         94.69978        5.31678      -15.57026
O         95.56968        5.67034      -16.34576
O         93.99125        6.24266      -14.90499
H         92.23024        5.44663      -15.92094
H         91.83462        2.67661      -15.61034
H         93.48065        2.58878      -13.88212
H         93.39228        4.31581      -13.46936
H         94.32869        3.28450      -16.22894
H         95.43034        3.52017      -14.81964
N         90.68889        4.36362      -12.89420
C         89.74440        4.22082      -11.80938
H         88.72934        4.02280      -12.21546
H         90.05072        3.38102      -11.15027
H         89.71219        5.15519      -11.21029
H         91.20495        5.25241      -12.98195
Ca        97.43855        7.41162      -17.58580
O         94.69772        8.10714      -19.06044
H         94.63409        7.77965      -19.99257
H         94.35925        7.35680      -18.51016
O         96.27854        5.25273      -19.29785
H         95.35837        5.22811      -19.66020
H         96.38711        4.39060      -18.82419
O        100.27418        8.45437      -17.67290
H        100.92010        8.04492      -17.04422
H         99.96261        9.27336      -17.21292
O         98.94976        5.07233      -16.57207
H         99.02228        4.32188      -17.21310
H         98.37080        4.72505      -15.84808

Ca 1.0



