%chk=apoCaM-CA-Ng.loop4.water4.frame665.chk
%nprocshared=20
%mem=10GB
%nosave
#b3lyp/svp scf=(tight,noincore,xqc) Test 
#IOP(5/87=12) Density=Current Pop=(MK,readradii) iop(6/33=2) iop(6/42=6)

apoCaM-CA-Ng.loop4.water4.frame665 

   -3  1 
C        -20.08613       64.14538       10.02280
C        -20.56590       65.40901       10.67961
O        -21.38267       66.10257       10.09338
H        -19.33297       63.62164       10.64910
H        -20.94369       63.45915        9.85897
H        -19.62062       64.38592        9.04423
N        -20.12614       65.74899       11.92489
C        -20.52896       66.94522       12.66137
C        -22.04156       67.13189       12.65545
O        -22.52072       68.21725       12.34949
C        -19.81112       68.20750       12.14092
C        -18.31552       68.13928       12.25570
O        -17.59811       67.25447       11.53876
O        -17.73042       68.94506       12.96096
H        -19.49389       65.09564       12.41235
H        -20.21323       66.80640       13.71940
H        -20.15566       69.07529       12.74742
H        -20.08145       68.40389       11.08478
N        -22.86454       66.09023       12.94517
C        -24.31793       66.23122       12.93529
C        -24.77075       67.08535       14.11255
O        -24.18797       66.95082       15.17983
C        -25.05103       64.85448       12.92454
C        -24.76201       63.99440       14.18522
C        -24.71652       64.10647       11.61794
C        -25.58417       62.70646       14.24061
H        -22.43588       65.17223       13.12743
H        -24.60844       66.72213       11.98430
H        -26.14286       65.06674       12.90466
H        -25.02884       64.57542       15.09161
H        -23.68752       63.72652       14.24858
H        -25.32428       63.18663       11.51219
H        -24.95726       64.74527       10.74075
H        -23.64133       63.83487       11.57166
H        -25.36824       62.17423       15.19062
H        -26.66907       62.94149       14.20345
H        -25.32356       62.02260       13.40836
N        -25.84516       67.92583       14.06274
C        -26.65304       68.19676       12.87865
C        -25.88841       69.07592       11.91013
O        -25.77430       68.73133       10.74187
C        -27.96322       68.90545       13.28731
C        -28.87807       69.11407       12.10977
O        -29.28189       68.15736       11.46728
O        -29.26466       70.35671       11.76514
H        -26.11977       68.38399       14.94698
H        -26.95479       67.23720       12.40464
H        -27.74004       69.88408       13.76590
H        -28.49999       68.27452       14.02843
N        -25.33752       70.24359       12.34515
C        -24.64062       71.16705       11.47304
C        -25.59171       71.92659       10.57914
O        -26.79812       71.73220       10.64454
H        -25.39050       70.48167       13.34709
H        -23.86755       70.62840       10.88267
H        -24.12627       71.92847       12.09874
N        -25.08833       72.87067        9.74087
C        -25.91326       73.74621        8.91369
C        -26.72816       73.03387        7.83408
O        -27.47031       73.73199        7.15815
C        -25.05129       74.91137        8.34081
C        -23.76795       74.51944        7.64828
O        -22.58757       74.91416        8.16339
O        -23.77434       73.88035        6.61530
H        -24.06727       73.01547        9.75572
H        -26.66367       74.23864        9.57213
H        -24.75379       75.54340        9.20471
H        -25.66088       75.55005        7.66461
N        -26.70064       71.68121        7.61190
C        -27.48317       71.06432        6.54309
C        -26.97248       71.44617        5.16249
O        -27.61698       71.11319        4.17879
H        -26.12386       71.06257        8.19598
H        -28.54736       71.36947        6.65863
H        -27.43798       69.95695        6.62327
N        -25.80042       72.12999        5.02279
C        -25.21033       72.58906        3.77572
C        -24.73094       71.43957        2.90378
O        -24.43981       71.66504        1.73864
C        -26.10503       73.63123        3.06247
C        -26.48468       74.76982        4.03483
C        -27.22179       75.92271        3.40603
N        -27.64297       76.94618        4.18664
O        -27.43957       75.94771        2.20383
H        -25.26096       72.33808        5.86096
H        -24.27793       73.14153        4.02994
H        -27.02924       73.16443        2.66128
H        -25.52643       74.05721        2.21324
H        -25.56717       75.17827        4.51238
H        -27.13963       74.35026        4.82076
H        -27.47189       76.93559        5.20389
H        -28.14518       77.74854        3.77917
N        -24.50489       70.20398        3.44722
C        -23.92773       69.08124        2.70949
C        -22.59349       68.61747        3.30115
O        -21.95169       67.78538        2.67110
C        -24.93150       67.89402        2.66256
C        -25.32675       67.39317        4.06759
C        -26.19024       68.27438        1.87360
H        -24.72651       70.05317        4.43864
H        -23.70463       69.39252        1.66565
H        -24.44692       67.05032        2.12274
H        -25.88196       68.16810        4.63730
H        -25.98847       66.50585        3.98491
H        -24.42936       67.09756        4.65067
H        -25.91386       68.57716        0.84140
H        -26.87626       67.40329        1.80640
H        -26.72919       69.11368        2.36159
N        -22.13304       69.05175        4.51066
C        -20.91150       68.56394        5.13959
C        -20.07582       69.72790        5.63710
O        -20.62593       70.60027        6.29803
C        -21.29028       67.68777        6.34874
C        -20.05725       67.13184        7.02476
N        -19.74854       67.48891        8.29090
O        -19.32349       66.36698        6.41608
H        -22.70204       69.70340        5.06808
H        -20.32064       67.92027        4.44886
H        -21.92627       66.83728        6.01973
H        -21.88449       68.29466        7.06743
H        -20.34980       68.14504        8.80850
H        -18.90644       67.11523        8.75361
N        -18.72495       69.75198        5.45315
C        -17.85838       70.74777        6.08419
C        -16.41050       70.51508        5.70498
O        -15.92956       69.40184        5.86648
C        -17.96523       70.67646        7.63223
C        -17.08838       71.70634        8.30731
C        -16.08148       71.30668        9.20107
C        -17.27239       73.07667        8.04951
C        -15.27404       72.26192        9.82509
C        -16.46093       74.02821        8.67118
C        -15.46258       73.62630        9.56301
O        -14.69536       74.55760       10.16376
H        -18.29550       68.99770        4.89268
H        -18.17195       71.75854        5.74575
H        -17.69295       69.65090        7.96818
H        -18.99947       70.86859        7.97383
H        -15.92248       70.25784        9.41854
H        -18.04168       73.41174        7.36568
H        -14.50318       71.94190       10.51301
H        -16.61155       75.07967        8.46085
H        -14.00463       74.32227       10.79934
N        -15.63965       71.54699        5.25957
C        -14.23233       71.40750        4.91856
C        -13.38750       72.24262        5.87004
O        -13.43911       73.45936        5.75409
C        -14.05954       71.80977        3.43067
C        -12.61693       71.86025        2.89235
C        -11.86472       73.07996        3.35408
O        -10.71851       72.95196        4.04779
O        -12.28417       74.19603        3.08533
H        -16.06258       72.48521        5.17976
H        -13.93015       70.35694        4.99738
H        -14.53933       72.79500        3.23562
H        -14.61997       71.05309        2.83893
H        -12.66402       71.92832        1.78401
H        -12.07735       70.92803        3.16185
N        -12.59145       71.72144        6.85987
C        -12.58087       70.33513        7.34044
C        -12.13198       69.30931        6.31406
O        -11.03063       69.40916        5.79229
C        -11.67705       70.21582        8.60209
C        -11.64631       68.81687        9.26700
C        -12.99274       68.36651        9.76765
O        -13.91236       68.19481        8.98862
O        -13.20727       68.11949       11.07134
H        -12.03410       72.40297        7.40039
H        -13.61899       70.11671        7.65511
H        -12.01626       70.95244        9.36312
H        -10.63320       70.47940        8.31902
H        -10.94360       68.85982       10.12742
H        -11.25475       68.06012        8.55404
N        -12.94590       68.24776        6.03644
C        -12.60764       67.16366        5.14234
H        -11.60405       67.28662        4.68897
H        -12.62585       66.20969        5.71322
H        -13.36862       67.10461        4.33632
H        -13.85960       68.17847        6.50382
Ca       -15.37553       67.65503       11.51368
O        -13.24997       65.10363       11.20263
H        -13.89950       64.41934       10.90286
H        -12.78061       65.37892       10.37525
O        -15.03177       70.31151       12.62022
H        -14.46644       71.00000       13.05008
H        -15.87620       70.78036       12.40281
O        -14.29286       67.33193       14.26900
H        -13.47935       67.82766       14.53820
H        -15.04228       67.93111       14.51424
O        -15.51038       65.80265        8.90288
H        -16.22264       65.12110        8.98877
H        -15.76239       66.32930        8.10303

Ca 1.0



