%chk=apoCaM-CA-Ng.loop2.water5.frame409.chk
%nprocshared=20
%mem=10GB
%nosave
#b3lyp/svp scf=(tight,noincore,xqc) Test 
#IOP(5/87=12) Density=Current Pop=(MK,readradii) iop(6/33=2) iop(6/42=6)

apoCaM-CA-Ng.loop2.water5.frame409 

   -2  1 
C         78.52431       90.85530       80.87710
C         77.82733       91.53436       79.73548
O         78.44919       92.32919       79.04543
H         79.58210       91.18812       80.94781
H         78.01011       91.09858       81.82988
H         78.50596       89.75582       80.72273
N         76.51950       91.25455       79.47613
C         75.76595       91.85033       78.37539
C         74.57615       92.61693       78.94259
O         74.15905       92.31868       80.05428
C         75.31416       90.69605       77.44793
C         74.75924       91.07627       76.09855
O         74.75369       92.34711       75.66134
O         74.36020       90.19518       75.35442
H         76.03820       90.57037       80.08191
H         76.41953       92.55012       77.81053
H         74.56338       90.08229       77.99363
H         76.19375       90.04872       77.23880
N         73.99089       93.63613       78.24940
C         72.83212       94.37152       78.74108
C         73.16960       95.83533       78.96456
O         74.28712       96.25847       78.70295
C         71.67333       94.20038       77.75187
H         74.37794       93.91838       77.34026
H         72.49769       93.96758       79.72154
H         70.75745       94.71402       78.11165
H         71.94440       94.60713       76.75470
H         71.43297       93.12048       77.64346
N         72.23336       96.65986       79.51025
C         72.48010       98.05118       79.88640
C         72.63414       99.00320       78.70010
O         72.72390      100.19853       78.94759
C         71.34909       98.56052       80.81250
C         71.30741       97.81380       82.12317
O         71.05833       96.61963       82.15845
O         71.54480       98.47142       83.27435
H         71.31957       96.24585       79.74582
H         73.41312       98.10674       80.48925
H         70.36466       98.49770       80.30085
H         71.54146       99.62764       81.06029
N         72.71877       98.58138       77.40366
C         72.87987       99.49418       76.28267
C         74.02440      100.45876       76.49348
O         73.78750      101.65749       76.42935
H         72.69193       97.58007       77.17645
H         71.94045      100.07342       76.14419
H         73.05580       98.90606       75.35550
N         75.28310      100.01449       76.77504
C         76.40622      100.92302       77.00404
C         77.49523      100.75494       75.95684
O         78.40841      101.56954       75.94205
C         77.00388      100.69387       78.40566
C         75.97931      100.84568       79.50121
N         75.70037       99.81178       80.32986
O         75.40210      101.91266       79.64807
H         75.44280       98.99787       76.84704
H         76.06153      101.97886       76.93584
H         77.82203      101.42468       78.58841
H         77.44326       99.67290       78.44382
H         76.17658       98.90377       80.22392
H         75.00484       99.91749       81.08291
N         77.47933       99.73169       75.05217
C         78.48042       99.55696       74.01610
C         79.88794       99.35718       74.53934
O         80.13081       99.40454       75.73761
H         76.71858       99.04028       75.06319
H         78.46977      100.44632       73.34911
H         78.20949       98.66670       73.40800
N         80.88583       99.15413       73.63629
C         82.30634       99.09288       73.97904
C         82.71090       97.91036       74.86540
O         83.87431       97.86823       75.23967
C         83.17982       99.11458       72.68937
C         83.02791       97.85586       71.81297
O         82.93232      100.28592       71.94604
H         80.60888       99.12715       72.64435
H         82.54753      100.02255       74.54188
H         84.24848       99.15549       72.99219
H         82.13635      100.14168       71.37114
H         83.33792       96.95574       72.37783
H         81.98256       97.71820       71.46670
H         83.68389       97.93918       70.92138
N         81.84287       96.92476       75.24529
C         82.23766       95.78451       76.07521
C         81.50349       95.88139       77.39841
O         80.28045       95.92113       77.38113
C         81.90669       94.45254       75.33921
C         82.53127       94.37635       73.92079
C         82.30694       93.22815       76.18263
C         84.06126       94.44135       73.87507
H         80.86076       96.96525       74.94052
H         83.32792       95.80375       76.28467
H         80.80411       94.40300       75.19109
H         82.12473       95.20527       73.30525
H         82.20787       93.42980       73.43569
H         81.76511       93.22472       77.15149
H         82.04060       92.29228       75.64665
H         83.39547       93.22519       76.39657
H         84.43613       95.39403       74.29849
H         84.51497       93.59094       74.42234
H         84.39646       94.38606       72.81791
N         82.18440       95.97094       78.58571
C         81.48256       96.18751       79.85066
C         82.41154       96.67570       80.97183
O         82.18408       96.34495       82.12729
C         80.67165       94.92065       80.24586
C         79.63486       95.14597       81.31595
O         78.85675       94.11849       81.70155
O         79.44562       96.25183       81.79734
H         83.21461       95.96262       78.56720
H         80.78758       97.03706       79.66660
H         81.37552       94.11806       80.55698
H         80.10761       94.54238       79.37140
N         83.41793       97.56055       80.71303
C         84.16884       98.25375       81.75895
C         84.84804       97.30817       82.74815
O         85.65268       96.49104       82.32233
C         85.19558       99.22587       81.13162
C         85.79432      100.15083       82.17112
C         85.38104      101.49330       82.22437
C         86.74441       99.69279       83.10458
C         85.88962      102.35268       83.20107
C         87.25410      100.55784       84.07704
C         86.82340      101.88534       84.12826
H         83.60641       97.81943       79.73318
H         83.43617       98.89683       82.28212
H         84.63534       99.84190       80.39418
H         85.99486       98.69383       80.56978
H         84.64897      101.87170       81.52189
H         87.09594       98.67032       83.08515
H         85.55372      103.38039       83.24143
H         87.98086      100.19750       84.79370
H         87.21324      102.55242       84.88570
N         84.62322       97.40484       84.10056
C         85.32702       96.62201       85.10568
C         84.88846       95.17240       85.07917
O         85.74118       94.30297       85.19318
C         85.01157       97.36196       86.41484
C         83.62972       97.91881       86.17974
C         83.71371       98.35782       84.71946
H         86.43388       96.66684       84.98898
H         85.15518       96.77539       87.34739
H         85.68401       98.25034       86.46461
H         82.91480       97.07785       86.27571
H         83.30129       98.71609       86.87990
H         82.68768       98.32891       84.29363
H         84.15322       99.37437       84.61900
N         83.58621       94.83402       84.86718
C         83.11986       93.45686       84.76557
C         83.87005       92.75227       83.65296
O         84.49776       91.73468       83.91260
C         81.59632       93.42248       84.50918
C         80.81216       93.98956       85.70759
C         79.33871       94.01405       85.43983
O         78.73378       92.97987       85.20588
O         78.67366       95.18473       85.47599
H         82.90536       95.58816       84.71387
H         83.31608       92.92248       85.72304
H         81.27496       92.36981       84.34804
H         81.35898       94.00418       83.59103
H         81.13417       95.02760       85.93071
H         81.00584       93.36763       86.60777
N         83.89473       93.27107       82.39593
C         84.66212       92.66920       81.32938
H         85.73626       92.63256       81.61388
H         84.29487       91.64148       81.12882
H         84.56406       93.27713       80.40489
H         83.38146       94.13910       82.19546
Ca        77.12215       94.50583       83.09283
O         75.61377       95.19220       85.75174
H         75.95160       96.11388       85.88212
H         74.62947       95.27722       85.81304
O         76.56781       95.52319       80.23628
H         76.02311       94.72601       80.45549
H         76.93560       95.33118       79.33748
O         76.99140       97.78924       82.82557
H         77.83634       98.24740       83.06386
H         76.28286       98.44306       83.05026
O         75.16219       92.25593       83.10705
H         75.45938       91.90119       83.98226
H         75.61492       91.68169       82.44010
O         74.12334       95.39733       82.50422
H         74.01866       96.34266       82.77915
H         73.74307       94.87632       83.25543

Ca 1.0



