%chk=apoCaM-CA-Ng.loop2.water2.frame991.chk
%nprocshared=20
%mem=10GB
%nosave
#b3lyp/svp scf=(tight,noincore,xqc) Test 
#IOP(5/87=12) Density=Current Pop=(MK,readradii) iop(6/33=2) iop(6/42=6)

apoCaM-CA-Ng.loop2.water2.frame991 

   -2  1 
C         49.30983       93.60494       44.42430
C         47.99791       93.30242       45.08148
O         47.03144       93.02937       44.38349
H         50.07322       92.87578       44.76823
H         49.22141       93.53332       43.31889
H         49.63412       94.63145       44.69317
N         47.89828       93.32127       46.44030
C         46.66929       93.01193       47.15643
C         46.89763       91.75538       47.97654
O         46.74421       91.77212       49.19078
C         46.25372       94.24116       47.99931
C         44.92853       94.10105       48.70915
O         44.47995       95.11792       49.46901
O         44.24988       93.09120       48.60116
H         48.73903       93.54696       46.99513
H         45.84383       92.79654       46.44262
H         46.17208       95.12021       47.32406
H         47.04497       94.45459       48.75083
N         47.28447       90.61124       47.34344
C         47.49320       89.33970       48.02477
C         48.96230       88.92317       47.94304
O         49.71623       89.58775       47.24505
C         46.56351       88.30731       47.36460
H         47.43440       90.63989       46.32239
H         47.23347       89.44630       49.09912
H         46.80993       88.20762       46.28565
H         46.62385       87.30086       47.81337
H         45.51005       88.64845       47.45399
N         49.49077       87.86741       48.63873
C         48.75469       87.02267       49.57666
C         49.30035       87.14675       50.98915
O         50.35395       87.73216       51.19540
C         48.70693       85.55653       49.08740
C         50.05197       84.88794       48.97173
O         50.88955       85.30057       48.18579
O         50.31428       83.78570       49.69749
H         50.49748       87.68199       48.51716
H         47.71249       87.37024       49.65829
H         48.21876       85.52067       48.09002
H         48.07803       84.96720       49.78870
N         48.54618       86.69150       52.02898
C         48.88672       86.87232       53.43009
C         48.59398       85.60615       54.20011
O         47.63575       85.60934       54.95976
H         47.62055       86.28615       51.81849
H         48.20384       87.65867       53.82030
H         49.92351       87.23454       53.58785
N         49.30651       84.45553       54.05805
C         50.53266       84.32267       53.28577
C         51.66310       85.03041       54.02731
O         51.87499       84.72359       55.19267
C         50.83696       82.81529       53.09357
C         52.00215       82.54378       52.18442
N         52.33029       81.27812       51.84392
O         52.64617       83.46878       51.73218
H         48.95875       83.62302       54.56154
H         50.37901       84.74218       52.26816
H         49.94611       82.34861       52.61863
H         51.01408       82.32272       54.07364
H         51.79013       80.47843       52.20241
H         53.11991       81.10066       51.20637
N         52.43179       85.98027       53.41712
C         53.47130       86.73836       54.10806
C         54.87814       86.43743       53.62293
O         55.79948       87.06993       54.11918
H         52.26975       86.18795       52.42111
H         53.46068       86.53448       55.20046
H         53.25742       87.81978       53.97141
N         55.13456       85.46020       52.70803
C         56.47242       85.06731       52.27708
C         56.60613       85.16303       50.76212
O         55.64662       85.48437       50.07562
C         56.74937       83.60722       52.74397
C         56.79817       83.49656       54.26952
O         55.76040       82.73289       52.26087
H         54.35319       84.92536       52.32411
H         57.24716       85.73005       52.72207
H         57.75050       83.26530       52.39600
H         55.97964       82.54057       51.31276
H         55.83013       83.79252       54.72464
H         57.01745       82.44644       54.56136
H         57.60530       84.14406       54.67424
N         57.79646       84.84733       50.18129
C         58.02640       84.74408       48.74372
C         58.33825       83.28986       48.43733
O         59.23346       82.72989       49.05585
C         59.14010       85.72029       48.25572
C         58.57855       87.16347       48.19951
C         60.43079       85.64689       49.10151
C         59.52956       88.16326       47.53689
H         58.58028       84.59535       50.80146
H         57.10778       84.99520       48.17363
H         59.38416       85.43104       47.20874
H         58.30946       87.51987       49.21715
H         57.65360       87.15546       47.58162
H         61.23053       86.27608       48.66373
H         60.24681       86.00654       50.13665
H         60.83047       84.61576       49.14399
H         60.45123       88.30523       48.13547
H         59.80025       87.81792       46.51563
H         59.02706       89.14951       47.45142
N         57.59075       82.59756       47.52436
C         57.70529       81.15239       47.33787
C         58.17597       80.77912       45.94277
O         58.35944       79.59326       45.70521
C         56.33838       80.44967       47.56867
C         55.45969       81.10601       48.59072
O         55.08606       80.51453       49.58975
O         54.98524       82.33056       48.29116
H         56.87805       83.10281       46.97772
H         58.43183       80.74783       48.07584
H         56.51231       79.37455       47.79562
H         55.73362       80.49968       46.63560
N         58.31769       81.70905       44.94856
C         58.65157       81.34847       43.57549
C         58.51468       82.55755       42.66065
O         59.21718       83.53457       42.88348
C         60.08382       80.75687       43.47049
C         60.42044       80.33693       42.05152
C         60.71624       81.29516       41.06128
C         60.43387       78.97579       41.70082
C         60.99525       80.90321       39.75183
C         60.71333       78.58732       40.38629
C         60.98990       79.55033       39.41243
H         58.11515       82.69842       45.14849
H         57.94511       80.55707       43.25405
H         60.13735       79.86185       44.12121
H         60.85242       81.46755       43.84437
H         60.73880       82.34942       41.29281
H         60.21176       78.21524       42.43874
H         61.21475       81.65178       39.00122
H         60.71082       77.53865       40.12098
H         61.20303       79.24957       38.39533
N         57.69386       82.54846       41.56167
C         57.72567       83.57815       40.53601
C         57.05525       84.87586       40.94053
O         57.09126       85.80043       40.13924
C         57.05185       82.90041       39.33783
C         56.01822       82.02730       40.01371
C         56.81591       81.45783       41.18394
H         58.77437       83.81424       40.24738
H         56.67793       83.58422       38.54633
H         57.79060       82.20597       38.87330
H         55.22810       82.70148       40.41608
H         55.53925       81.25915       39.37004
H         56.11042       81.16463       41.99163
H         57.44240       80.59123       40.87569
N         56.44926       85.05129       42.15173
C         55.88741       86.34202       42.54091
C         56.95903       87.41924       42.71105
O         56.59317       88.57132       42.90135
C         55.03933       86.22972       43.82621
C         55.84352       85.85196       45.08181
C         54.93459       85.81119       46.27264
O         54.78364       84.77465       46.89433
O         54.27693       86.92021       46.65921
H         56.36541       84.25156       42.79339
H         55.19289       86.65908       41.73034
H         54.23931       85.47422       43.66085
H         54.54450       87.21123       44.00135
H         56.63870       86.60228       45.27579
H         56.32528       84.86039       44.94914
N         58.29337       87.13071       42.68033
C         59.30553       88.14933       42.84882
H         60.31585       87.68983       42.79229
H         59.21629       88.90944       42.04424
H         59.19243       88.63626       43.84041
H         58.62113       86.16490       42.54931
Ca        53.38283       83.57118       49.23246
O         52.37670       82.98306       46.25936
H         51.40342       82.80151       46.26712
H         52.61574       83.02579       45.29942
O         53.05004       86.98003       49.72118
H         53.11804       87.59936       48.95244
H         53.02857       87.57483       50.51175

Ca 1.0



