%chk=apoCaM-CA-Ng.loop1.water4.frame30.chk
%nprocshared=20
%mem=10GB
%nosave
#b3lyp/svp scf=(tight,noincore,xqc) Test 
#IOP(5/87=12) Density=Current Pop=(MK,readradii) iop(6/33=2) iop(6/42=6)

apoCaM-CA-Ng.loop1.water4.frame30 

   0  1 
C         81.85674       38.47200       56.17676
C         81.20817       37.16753       55.82215
O         80.69765       36.49392       56.70652
H         82.92610       38.45415       55.88209
H         81.34218       39.29777       55.64099
H         81.78624       38.66257       57.26936
N         81.16992       36.75428       54.52374
C         80.48262       35.53346       54.11235
C         81.13083       34.25846       54.64250
O         80.53692       33.20632       54.46483
C         80.35945       35.46953       52.57109
C         81.68145       35.28162       51.87290
O         82.10230       36.13350       51.10721
O         82.38534       34.14866       52.05621
H         81.58518       37.36802       53.80523
H         79.44648       35.59538       54.51459
H         79.87916       36.40944       52.21935
H         79.69702       34.62596       52.28006
N         82.35638       34.25154       55.24694
C         83.00039       33.02190       55.69843
C         82.19688       32.38484       56.81419
O         81.89392       33.08834       57.76798
C         84.45465       33.25989       56.18362
C         85.46749       33.33240       55.02258
C         85.41909       34.61663       54.18202
C         86.32923       34.52360       52.94370
N         85.75132       33.66121       51.90612
H         82.86259       35.13847       55.37083
H         83.07710       32.32775       54.85271
H         84.76274       32.35096       56.74422
H         84.53476       34.11278       56.89206
H         85.30685       32.43557       54.39342
H         86.49452       33.24910       55.44209
H         85.76499       35.44668       54.83609
H         84.40287       34.85395       53.81995
H         87.34078       34.16130       53.23260
H         86.44130       35.54260       52.51391
H         85.58163       32.69049       52.24893
H         84.85061       34.07305       51.57302
H         86.40364       33.61432       51.09165
N         81.85483       31.05732       56.84725
C         82.20430       30.00422       55.88543
C         83.71419       29.92031       55.62591
O         84.13230       30.03833       54.48158
C         81.41264       30.09412       54.56837
C         79.92648       30.06598       54.70908
O         79.20761       30.09562       53.57760
O         79.36906       30.05520       55.79607
H         81.34916       30.73594       57.68876
H         81.89211       29.03131       56.32631
H         81.68597       29.21081       53.95947
H         81.67381       30.99421       53.98561
N         84.61412       29.68635       56.61952
C         84.20002       29.47446       57.99063
C         85.32494       29.11726       58.93151
O         86.48572       29.17914       58.55243
H         85.61064       29.61973       56.36186
H         83.48621       28.65138       57.98125
H         83.70454       30.38150       58.38900
N         85.06765       28.74559       60.21782
C         83.72177       28.54439       60.75306
C         83.08201       27.32362       60.09638
O         83.67076       26.25162       60.13268
C         83.78760       28.36085       62.28104
C         82.41866       28.21469       62.88727
O         82.10418       27.10460       63.58080
O         81.58950       29.10219       62.76014
H         85.87612       28.58126       60.83880
H         83.11553       29.46047       60.57147
H         84.26972       29.25734       62.72979
H         84.40593       27.47170       62.53072
N         81.86659       27.41732       59.48316
C         81.22208       26.29640       58.81170
C         81.88262       25.94523       57.49347
O         82.84549       26.58299       57.09691
H         81.35884       28.31462       59.51579
H         80.17764       26.58583       58.56413
H         81.18311       25.41847       59.49172
N         81.37703       24.94141       56.72654
C         81.85687       24.68887       55.37147
C         81.15603       25.63209       54.41744
O         79.99452       25.94054       54.64865
C         81.52685       23.24826       54.90762
C         82.12052       22.18384       55.82864
O         82.03922       23.05615       53.61078
H         80.56236       24.41282       57.07555
H         82.96356       24.81020       55.32507
H         80.41564       23.12914       54.90443
H         81.42118       22.44343       53.13375
H         83.22645       22.27261       55.86314
H         81.71044       22.27949       56.85490
H         81.85252       21.17684       55.44280
N         81.73665       25.99015       53.23731
C         80.97744       26.66766       52.18106
C         79.80669       25.78406       51.74614
O         79.78053       24.61179       52.09394
C         81.87792       27.05172       50.96277
C         82.50039       25.79015       50.29319
C         82.94032       28.08116       51.39438
C         83.45756       26.09259       49.14059
H         82.71845       25.72261       53.08434
H         80.55216       27.59928       52.61555
H         81.24339       27.56296       50.20397
H         81.67527       25.16056       49.89580
H         83.06826       25.18120       51.02346
H         82.44635       28.97721       51.82153
H         83.64229       27.66047       52.14301
H         83.52126       28.44365       50.52220
H         83.80002       25.13634       48.69120
H         82.95877       26.70274       48.36034
H         84.36197       26.61965       49.51079
N         78.76902       26.30506       51.03336
C         77.58322       25.51995       50.68020
C         77.29810       25.50220       49.19050
O         76.32916       24.85206       48.82497
C         76.34208       26.04071       51.45261
C         76.01558       27.51114       51.16919
O         76.54189       25.88183       52.83113
H         78.79726       27.30578       50.79056
H         77.71649       24.45613       50.97492
H         75.44537       25.45015       51.14540
H         76.33712       24.93385       53.04589
H         75.85669       27.68203       50.08336
H         75.08718       27.79926       51.70497
H         76.83166       28.16819       51.53109
N         78.05501       26.18550       48.28163
C         77.76866       26.28979       46.85136
C         76.45243       27.02063       46.62808
O         75.41599       26.58616       47.10831
C         77.85005       24.93319       46.10224
C         77.88321       25.14712       44.58454
O         76.76189       24.10009       46.41058
H         78.88011       26.70765       48.61078
H         78.58610       26.91007       46.41843
H         78.81865       24.45029       46.37854
H         77.12530       23.24562       46.76050
H         78.75665       25.77510       44.30415
H         77.97959       24.16967       44.06693
H         76.95596       25.64718       44.23253
N         76.42800       28.15855       45.88819
C         75.22073       28.95147       45.71390
C         74.85193       29.63057       47.01685
O         73.68772       29.58809       47.39183
C         75.40161       29.99503       44.59315
C         75.57614       29.29192       43.23358
C         75.63317       30.28386       42.06916
C         75.77336       29.53211       40.73632
N         75.78159       30.45805       39.60546
H         77.29972       28.47530       45.43791
H         74.37402       28.30423       45.38669
H         76.26408       30.66344       44.80770
H         74.47915       30.61610       44.54169
H         74.70759       28.61575       43.06698
H         76.50223       28.67811       43.23898
H         76.49676       30.97081       42.20326
H         74.69572       30.88214       42.05368
H         74.92338       28.82302       40.61579
H         76.71893       28.94499       40.73980
H         75.89593       29.91328       38.72012
H         74.87614       30.98023       39.56502
H         76.57634       31.13141       39.69572
N         75.79375       30.27759       47.76496
C         75.44339       31.06083       48.94082
C         74.95593       32.41198       48.47251
O         75.71463       33.13455       47.83924
C         76.63914       31.20288       49.92096
C         76.35201       32.19616       51.07568
C         75.08193       31.87171       51.83327
O         75.01857       30.79980       52.64477
O         74.11312       32.60688       51.73778
H         76.77691       30.26577       47.45206
H         74.64500       30.53526       49.51184
H         77.53668       31.57110       49.37695
H         76.88583       30.19988       50.32805
H         76.25365       33.20769       50.62868
H         77.21988       32.24545       51.76789
N         73.69594       32.82678       48.76696
C         73.20804       34.12721       48.37123
H         72.16423       34.26102       48.72459
H         73.84155       34.91991       48.82443
H         73.23068       34.21853       47.26517
H         73.06579       32.20818       49.29968
Ca        77.00193       30.34298       53.53839
O         76.13352       28.77784       57.49900
H         75.84412       29.13483       58.37550
H         75.62324       27.93583       57.39153
O         74.58341       28.25069       54.53770
H         74.57846       27.30668       54.23964
H         73.63633       28.44940       54.74618
O         77.60314       27.68894       55.26158
H         78.21439       27.77255       54.48864
H         77.16036       26.81393       55.13434
O         77.32025       33.07811       55.04994
H         78.02534       32.65552       54.49974
H         76.79639       33.61471       54.40391

Ca 1.0



