%chk=apoCaM-CA-Ng.loop1.water3.frame321.chk
%nprocshared=20
%mem=10GB
%nosave
#b3lyp/svp scf=(tight,noincore,xqc) Test 
#IOP(5/87=12) Density=Current Pop=(MK,readradii) iop(6/33=2) iop(6/42=6)

apoCaM-CA-Ng.loop1.water3.frame321 

   0  1 
C         38.01926      101.17596       60.01405
C         37.50523      102.02934       58.88818
O         38.30111      102.52056       58.10096
H         38.70498      101.77001       60.65248
H         37.18984      100.79754       60.64994
H         38.56551      100.30194       59.60175
N         36.16821      102.23525       58.74165
C         35.58602      103.01990       57.65541
C         35.79330      104.52784       57.82905
O         35.26751      105.26130       57.00895
C         34.05984      102.74949       57.56497
C         33.73249      101.31315       57.23543
O         34.06676      100.31663       58.07736
O         33.13411      101.04645       56.20516
H         35.53509      101.77256       59.41141
H         36.02545      102.69581       56.68560
H         33.62999      103.38069       56.75466
H         33.56160      103.03249       58.51790
N         36.48710      105.08314       58.86538
C         36.46899      106.51959       59.14726
C         37.84160      107.16285       59.07306
O         38.78722      106.53470       59.52892
C         35.90956      106.71861       60.56492
C         34.43871      106.30219       60.64515
C         33.84143      106.70940       61.99161
C         32.34866      106.37473       62.05002
N         31.76759      106.83089       63.31097
H         36.97443      104.47998       59.54183
H         35.79951      107.04985       58.45508
H         35.97670      107.78574       60.83211
H         36.51592      106.16102       61.31268
H         34.33890      105.20609       60.48601
H         33.87737      106.82824       59.84512
H         33.96285      107.80861       62.11811
H         34.38018      106.19217       62.81512
H         32.20887      105.27571       61.94831
H         31.82270      106.87666       61.20653
H         32.24181      106.36166       64.11622
H         31.87169      107.86863       63.39656
H         30.75025      106.59194       63.32500
N         38.06026      108.45643       58.65030
C         37.09426      109.43065       58.10850
C         35.88664      109.64705       59.01748
O         34.77619      109.31977       58.62320
C         36.67525      109.08921       56.66370
C         37.82122      109.03850       55.70513
O         39.08443      109.26291       56.10650
O         37.61035      108.73422       54.54204
H         39.02627      108.80813       58.74769
H         37.60437      110.41357       58.02279
H         35.98156      109.87452       56.30171
H         36.16231      108.11041       56.61910
N         35.99047      110.19928       60.25616
C         37.23102      110.74968       60.76617
C         37.13740      111.19225       62.21334
O         36.15149      110.90689       62.87700
H         35.13112      110.26201       60.82308
H         37.49640      111.60657       60.12218
H         38.03815      109.99110       60.71970
N         38.16431      111.85649       62.81496
C         39.34060      112.33934       62.09507
C         38.98404      113.53279       61.20886
O         37.86548      114.02778       61.27514
C         40.46582      112.70954       63.09268
C         40.07759      113.78202       64.07811
O         40.06827      113.50799       65.39689
O         39.78357      114.90286       63.69487
H         38.08757      112.03473       63.82870
H         39.74184      111.51580       61.46450
H         41.37350      113.03887       62.54437
H         40.73717      111.79117       63.65802
N         39.91928      114.07402       60.38004
C         39.71057      115.30042       59.62615
C         38.69586      115.23796       58.50047
O         38.51242      116.27466       57.87746
H         40.85781      113.64864       60.34433
H         40.67715      115.59828       59.16495
H         39.41598      116.10460       60.33547
N         38.01456      114.10507       58.15205
C         37.07020      114.07189       57.03702
C         35.67615      113.74520       57.52994
O         35.45630      112.66797       58.06648
C         37.50837      113.04107       55.96829
C         38.89019      113.35385       55.38768
O         36.56173      112.96404       54.92921
H         38.17483      113.23199       58.67013
H         37.03159      115.06083       56.53090
H         37.56471      112.04099       56.44008
H         36.49076      113.86353       54.51415
H         39.15554      112.57948       54.63836
H         38.88788      114.34781       54.89147
H         39.66158      113.34963       56.18598
N         34.66756      114.63971       57.33123
C         33.26918      114.36064       57.63594
C         32.80930      113.21340       56.75965
O         32.29434      112.23834       57.28890
C         32.38635      115.63088       57.40321
C         32.80191      116.74576       58.40388
C         30.88401      115.30031       57.55676
C         32.10242      118.08585       58.17013
H         34.90058      115.54326       56.89258
H         33.15952      114.07451       58.70741
H         32.54969      115.99115       56.36286
H         33.88968      116.94422       58.31832
H         32.60250      116.40832       59.44501
H         30.66387      114.93557       58.58250
H         30.25117      116.18375       57.34214
H         30.56965      114.52438       56.82804
H         31.00736      118.01243       58.32036
H         32.48778      118.82982       58.89909
H         32.31402      118.45328       57.14381
N         32.96339      113.27147       55.40364
C         32.47095      112.22645       54.51461
C         33.11237      110.89889       54.85834
O         34.29985      110.72779       54.61787
C         32.75101      112.55333       53.02055
C         32.07436      113.84276       52.55099
O         32.28731      111.50192       52.20864
H         33.43315      114.09631       55.00344
H         31.37015      112.15098       54.65868
H         33.85106      112.69398       52.87624
H         33.06369      110.91476       52.00988
H         30.97280      113.76091       52.65863
H         32.42991      114.72528       53.11917
H         32.31647      114.01413       51.47985
N         32.37304      109.90727       55.43302
C         32.92389      108.58252       55.69628
C         33.14860      107.85156       54.37866
O         32.77238      108.37579       53.33795
C         32.02831      107.78056       56.67990
C         30.64137      107.42718       56.13566
O         31.86549      108.52569       57.86252
H         31.39900      110.11364       55.69666
H         33.89570      108.70871       56.21091
H         32.53553      106.81089       56.90391
H         32.37884      108.07484       58.58082
H         30.72576      106.80722       55.21985
H         30.08898      106.84195       56.90237
H         30.04793      108.33572       55.90935
N         33.74753      106.62831       54.34649
C         33.94550      105.87643       53.11461
C         35.43360      105.64346       52.88483
O         35.95248      106.12906       51.88978
C         33.09473      104.58987       53.18280
C         32.93248      103.90000       51.81947
C         31.90623      102.75758       51.90749
C         31.60046      102.16734       50.52341
N         30.58075      101.12116       50.61297
H         34.04683      106.20305       55.22930
H         33.55703      106.46464       52.25377
H         32.07366      104.90134       53.50044
H         33.48455      103.88583       53.94992
H         33.91025      103.52093       51.45218
H         32.54495      104.65135       51.09612
H         30.95459      103.15671       52.32414
H         32.28450      101.96323       52.58732
H         32.52843      101.74579       50.07914
H         31.22584      102.97544       49.85514
H         30.37947      100.75475       49.65444
H         30.92097      100.33549       51.21315
H         29.69630      101.51226       51.01287
N         36.18588      104.92893       53.77326
C         37.62510      104.70140       53.63634
C         37.87794      103.22687       53.42076
O         37.50676      102.42016       54.26243
C         38.37621      105.22004       54.89196
C         39.85537      104.76703       55.00055
C         40.73553      105.10871       53.81951
O         41.19082      104.21049       53.13038
O         41.09795      106.37859       53.55489
H         35.71383      104.50798       54.58647
H         38.03501      105.25451       52.76324
H         37.86909      104.83365       55.80281
H         38.30483      106.32364       54.91831
H         39.85484      103.66287       55.12541
H         40.30570      105.18911       55.92505
N         38.55364      102.81753       52.30967
C         38.90554      101.44027       52.04323
H         40.01148      101.35778       51.97713
H         38.55004      100.75174       52.83707
H         38.46436      101.13064       51.07380
H         38.86381      103.51869       51.61961
Ca        40.51115      107.98728       54.98319
O         42.07321      111.09016       56.69159
H         42.48937      110.78043       57.53500
H         42.23159      112.06766       56.68084
O         41.62944      111.73478       53.63335
H         42.28186      111.61737       52.89815
H         41.44219      112.70693       53.64443
O         40.89568      109.08628       52.00996
H         41.12321      108.23646       51.55592
H         40.65448      109.70308       51.27427

Ca 1.0



