%chk=apoCaM-CA-Ng.loop2.water5.frame1479.chk
%nprocshared=20
%mem=10GB
%nosave
#b3lyp/svp scf=(tight,noincore,xqc) Test 
#IOP(5/87=12) Density=Current Pop=(MK,readradii) iop(6/33=2) iop(6/42=6)

apoCaM-CA-Ng.loop2.water5.frame1479 

   -2  1 
C         36.84006       67.08326       74.64968
C         37.27607       68.50998       74.83127
O         37.49570       68.90998       75.96508
H         35.83615       67.05770       74.17618
H         37.57125       66.53875       74.01629
H         36.77718       66.56717       75.63121
N         37.43132       69.37105       73.78637
C         37.23028       69.02893       72.38024
C         36.05416       69.81510       71.75979
O         35.73435       69.56262       70.60681
C         38.58482       69.20905       71.64523
C         39.02496       70.63786       71.69295
O         40.08738       71.08114       72.38440
O         38.33870       71.46417       71.14443
H         37.73198       70.33288       74.00645
H         36.95687       67.96041       72.27443
H         38.50100       68.88778       70.58352
H         39.34770       68.57189       72.14137
N         35.32938       70.73165       72.47946
C         34.09667       71.38140       72.00663
C         34.25450       72.35712       70.83450
O         33.24360       72.87776       70.38266
C         33.46523       72.15822       73.17716
H         35.60641       70.91533       73.45341
H         33.38580       70.58117       71.70596
H         33.28920       71.48065       74.03977
H         34.14446       72.97615       73.50592
H         32.49036       72.60352       72.88606
N         35.46943       72.69326       70.32683
C         35.69625       73.71413       69.30708
C         36.34042       73.13954       68.04364
O         35.86040       73.44566       66.96058
C         36.50718       74.89210       69.92258
C         37.82224       74.50183       70.55310
O         38.03246       74.64249       71.87332
O         38.71009       74.01201       69.88431
H         36.28725       72.25528       70.73561
H         34.73383       74.17283       68.98438
H         35.87664       75.34506       70.71849
H         36.68219       75.66963       69.14732
N         37.42277       72.30845       68.08771
C         38.12118       71.82928       66.90573
C         38.92403       72.91634       66.20637
O         39.48936       72.62725       65.16193
H         37.76488       71.97569       68.98803
H         37.38626       71.37033       66.20991
H         38.84513       71.03865       67.20382
N         39.04470       74.17372       66.72755
C         39.74575       75.27520       66.08919
C         40.94663       75.71994       66.92724
O         42.04492       75.73220       66.38837
C         38.72688       76.40530       65.86328
C         39.31032       77.57005       65.11019
N         39.30524       78.81029       65.64945
O         39.77639       77.39570       63.99389
H         38.58815       74.39654       67.61296
H         40.12491       74.96301       65.08974
H         38.31555       76.73754       66.84167
H         37.88097       76.00250       65.26278
H         38.90671       78.97827       66.58473
H         39.69435       79.60799       65.12629
N         40.83798       76.06909       68.24612
C         42.01436       76.46550       69.02789
C         41.75612       76.59031       70.52678
O         40.63394       76.36589       70.95620
H         39.91227       76.01890       68.69317
H         42.39771       77.42938       68.62834
H         42.79691       75.68664       68.91141
N         42.74044       76.91976       71.42529
C         44.12432       77.25596       71.09078
C         45.11732       76.26671       71.71238
O         45.85735       75.65363       70.95609
C         44.44529       78.71198       71.52179
C         43.59070       79.72799       70.75421
O         44.23513       78.87773       72.90092
H         42.47926       76.95696       72.42342
H         44.28167       77.21342       69.99236
H         45.51637       78.90686       71.27649
H         44.76237       79.67045       73.18300
H         43.86777       80.75974       71.06001
H         43.76592       79.63107       69.66181
H         42.51068       79.57776       70.96404
N         45.21458       76.07445       73.06645
C         46.20982       75.20044       73.70549
C         45.51193       74.06370       74.46371
O         44.54750       74.35351       75.15676
C         47.12096       76.03539       74.66380
C         48.00643       76.99189       73.81915
C         48.00318       75.12594       75.55220
C         48.93479       77.88989       74.64045
H         44.56607       76.58048       73.68619
H         46.86363       74.78375       72.92989
H         46.47263       76.62505       75.34960
H         47.35352       77.65111       73.20898
H         48.63780       76.39257       73.12509
H         47.38102       74.45126       76.17630
H         48.69516       74.51660       74.93606
H         48.59188       75.71895       76.27886
H         48.34673       78.51849       75.34009
H         49.68057       77.29663       75.20822
H         49.50619       78.54953       73.95413
N         45.94103       72.75428       74.46085
C         47.13864       72.23126       73.79660
C         48.12575       71.63142       74.79522
O         47.82357       71.48908       75.97279
C         46.76148       71.16469       72.74419
C         45.84207       71.69940       71.68398
O         46.19905       71.73136       70.51714
O         44.60346       72.10731       72.00828
H         45.38635       72.07409       75.00517
H         47.70405       73.01781       73.28201
H         46.27151       70.29776       73.23681
H         47.68457       70.79534       72.24634
N         49.35614       71.26194       74.34317
C         50.41344       70.61279       75.13162
C         50.91756       71.52769       76.25309
O         50.51168       72.67951       76.27135
C         51.57551       70.28012       74.15351
C         51.10359       69.37915       73.03455
C         50.76839       68.04147       73.29727
C         50.97355       69.87545       71.72373
C         50.30951       67.21480       72.26736
C         50.49885       69.05017       70.70083
C         50.16898       67.72016       70.97182
H         49.54161       71.44892       73.34699
H         49.99531       69.68260       75.56775
H         52.44127       69.79592       74.62980
H         51.93983       71.24548       73.73392
H         50.86720       67.63960       74.29712
H         51.21589       70.90678       71.49740
H         50.05777       66.18328       72.47507
H         50.38302       69.44351       69.69892
H         49.80340       67.08187       70.17813
N         51.81765       71.13096       77.22120
C         52.40147       69.80925       77.43039
C         51.39451       68.70038       77.63439
O         51.50778       67.66902       76.99038
C         53.21103       69.96051       78.72951
C         53.64815       71.39723       78.65254
C         52.36421       72.07425       78.18110
H         53.10838       69.57539       76.61091
H         52.54675       69.89663       79.62169
H         54.02200       69.21039       78.85311
H         54.07695       71.81189       79.58929
H         54.40942       71.47197       77.84212
H         51.63014       72.20973       79.00600
H         52.63321       73.05309       77.72960
N         50.39971       68.83696       78.55878
C         49.51512       67.73863       78.91949
C         50.33153       66.72402       79.72069
O         50.78621       67.10028       80.79278
C         48.34097       68.24446       79.79165
C         47.43717       69.22689       79.02849
C         46.32703       69.72771       79.90717
O         46.21794       70.92179       80.13694
O         45.44128       68.86441       80.44019
H         50.29752       69.74056       79.04400
H         49.06182       67.32998       78.00037
H         48.73880       68.74313       80.70430
H         47.72527       67.37353       80.11004
H         46.99500       68.71860       78.14483
H         48.03234       70.09395       78.67003
N         50.60975       65.44541       79.32603
C         50.23115       64.81427       78.07855
H         49.65861       65.45757       77.39474
H         51.15336       64.50142       77.54436
H         49.62576       63.91054       78.29618
H         51.17106       64.86250       79.96728
Ca        39.73546       73.31543       72.55422
O         42.38418       74.11037       72.57403
H         42.36569       73.36909       71.91945
H         43.34342       74.28221       72.72016
O         41.04921       72.27232       74.94363
H         41.03090       72.48224       75.91011
H         41.00157       71.28434       74.90081
O         39.72266       75.60140       74.56284
H         38.78669       75.80200       74.30933
H         40.26352       76.25662       74.05435
O         37.34372       72.91611       74.16763
H         37.40471       72.72654       75.13692
H         36.63522       73.60214       74.08720
O         41.37031       73.07292       69.38002
H         42.33188       73.30729       69.37654
H         41.35050       72.09657       69.21960

Ca 1.0



