%chk=apoCaM-CA-Ng.loop1.water4.frame753.chk
%nprocshared=20
%mem=10GB
%nosave
#b3lyp/svp scf=(tight,noincore,xqc) Test 
#IOP(5/87=12) Density=Current Pop=(MK,readradii) iop(6/33=2) iop(6/42=6)

apoCaM-CA-Ng.loop1.water4.frame753 

   0  1 
C        -12.73451       46.84755       34.95315
C        -12.41207       48.13472       34.25624
O        -13.15773       49.09182       34.40534
H        -13.72876       46.48934       34.61428
H        -11.98397       46.06167       34.72119
H        -12.75044       47.01068       36.04952
N        -11.31426       48.21980       33.45850
C        -10.96866       49.40654       32.68483
C        -11.04841       49.09844       31.19595
O        -11.19476       47.94111       30.82882
C         -9.62150       50.01819       33.13810
C         -8.41757       49.10935       33.18922
O         -8.49360       47.77175       33.04111
O         -7.32084       49.60998       33.38285
H        -10.73334       47.37767       33.35951
H        -11.73268       50.19713       32.84901
H         -9.73908       50.44797       34.15581
H         -9.38820       50.86066       32.45003
N        -11.08676       50.11668       30.28542
C        -11.38453       49.91283       28.87061
C        -10.24142       50.46125       28.03524
O        -10.41943       51.40930       27.28282
C        -12.76814       50.54415       28.57696
C        -13.38025       50.12745       27.22396
C        -14.80804       50.68922       27.09323
C        -15.50417       50.22765       25.80420
N        -16.86759       50.75832       25.73178
H        -10.99634       51.08883       30.61966
H        -11.48504       48.82929       28.64317
H        -12.71669       51.65128       28.66673
H        -13.46552       50.17039       29.36003
H        -13.43473       49.01644       27.18339
H        -12.75226       50.48221       26.37954
H        -14.76875       51.79998       27.11269
H        -15.41579       50.34006       27.95738
H        -15.54800       49.11559       25.78188
H        -14.92595       50.57484       24.92003
H        -17.31935       50.43420       24.84616
H        -17.43321       50.41291       26.54158
H        -16.84977       51.80409       25.73868
N         -9.02261       49.85698       28.11683
C         -7.84781       50.25520       27.34111
C         -7.56945       49.22026       26.26507
O         -7.97953       48.07889       26.42203
C         -6.58038       50.41372       28.23801
C         -6.26192       49.16994       29.02172
O         -5.28607       48.48077       28.77018
O         -7.06246       48.86573       30.04694
H         -8.96335       49.01942       28.70801
H         -8.05155       51.22204       26.84121
H         -6.70738       51.24935       28.95810
H         -5.69987       50.65240       27.61580
N         -6.83071       49.49953       25.15304
C         -6.34111       50.81800       24.77551
C         -7.43381       51.73314       24.27193
O         -8.58598       51.33025       24.17631
H         -6.59730       48.71552       24.52875
H         -5.63386       50.70111       23.92730
H         -5.78379       51.29115       25.60053
N         -7.10854       53.00065       23.88521
C         -8.05838       53.90314       23.24051
C         -8.35331       53.45529       21.80993
O         -9.22563       54.04364       21.18636
C         -7.50623       55.34641       23.17919
C         -7.27132       55.94519       24.54047
O         -7.94046       57.05442       24.90852
O         -6.45969       55.45318       25.30766
H         -6.13643       53.31477       24.02513
H         -9.00109       53.91791       23.83383
H         -8.24186       55.99145       22.64894
H         -6.55604       55.36412       22.60138
N         -7.64277       52.45200       21.21199
C         -7.84750       52.01581       19.84341
C         -8.28486       50.57199       19.76995
O         -8.39631       50.07082       18.65897
H         -6.89129       51.97004       21.72289
H         -6.88372       52.13115       19.30203
H         -8.60854       52.63191       19.31912
N         -8.58400       49.84432       20.88849
C         -9.05608       48.46574       20.84630
C         -8.11190       47.57553       21.64412
O         -7.18088       48.09098       22.24942
C        -10.50585       48.40711       21.40070
C        -11.42093       49.47639       20.77816
O        -11.06946       47.13467       21.20863
H         -8.51972       50.28220       21.81785
H         -9.06442       48.10317       19.79497
H        -10.47915       48.61392       22.49310
H        -11.15405       46.99195       20.22799
H        -12.44493       49.38508       21.19701
H        -11.05175       50.49650       21.02008
H        -11.46713       49.36564       19.67436
N         -8.25853       46.21850       21.66304
C         -7.34285       45.32959       22.38793
C         -5.92162       45.47871       21.85142
O         -4.98708       45.12754       22.55621
C         -7.81598       43.84301       22.27795
C         -9.21878       43.66435       22.91958
C         -6.81784       42.85053       22.92095
C         -9.89242       42.35545       22.50115
H         -9.02628       45.80766       21.11371
H         -7.34350       45.63808       23.45908
H         -7.88348       43.61094       21.19136
H         -9.91024       44.46584       22.59363
H         -9.14110       43.72974       24.02738
H         -5.83142       42.88205       22.41769
H         -6.68209       43.07712       24.00049
H         -7.15415       41.80215       22.81611
H         -9.31728       41.46344       22.81395
H        -10.89890       42.29306       22.96376
H        -10.01458       42.33930       21.39593
N         -5.68805       46.01615       20.62023
C         -4.35730       46.19774       20.06478
C         -4.25348       45.52935       18.70674
O         -5.23173       45.00581       18.19365
C         -4.02083       47.70899       19.99503
C         -5.04686       48.53237       19.20514
O         -3.94233       48.21147       21.30436
H         -6.48007       46.31469       20.03654
H         -3.59140       45.71818       20.71300
H         -3.02757       47.81644       19.50125
H         -3.27504       48.94688       21.29562
H         -6.03707       48.51259       19.70421
H         -4.71883       49.59171       19.16230
H         -5.15281       48.14868       18.16958
N         -3.04952       45.52057       18.07492
C         -2.81667       44.94952       16.76088
C         -1.81346       43.81835       16.90416
O         -2.15711       42.68295       16.60138
C         -2.37871       46.09319       15.80236
C         -2.00510       45.60793       14.40306
O         -1.29515       46.81253       16.33790
H         -2.24442       45.94682       18.55469
H         -3.75321       44.51489       16.34267
H         -3.26427       46.76945       15.70859
H         -1.47745       47.77915       16.20017
H         -1.75867       46.48576       13.76664
H         -1.11125       44.95010       14.44670
H         -2.84965       45.05830       13.93998
N         -0.55201       44.05863       17.35352
C          0.47445       43.03753       17.49775
C          1.18083       43.22210       18.83139
O          1.55516       44.34718       19.14076
C          1.46324       43.19836       16.33666
C          2.49012       42.05989       16.30170
C          3.45996       42.25251       15.13603
C          4.47311       41.10563       15.06923
N          5.43864       41.33290       13.99581
H         -0.27531       45.03127       17.54559
H          0.04164       42.01474       17.41347
H          1.97022       44.18596       16.40510
H          0.88940       43.16682       15.38277
H          1.95528       41.09018       16.18524
H          3.06615       42.03718       17.25172
H          3.99943       43.21431       15.27715
H          2.89422       42.29510       14.17882
H          3.93646       40.14663       14.89035
H          5.01612       41.02947       16.03741
H          4.94646       41.40195       13.07555
H          5.97040       42.21526       14.17816
H          6.11107       40.53333       13.96491
N          1.45927       42.16838       19.65139
C          2.14614       42.36208       20.92540
C          1.25313       43.12411       21.89957
O          1.66848       44.19404       22.32071
C          2.68596       41.03831       21.52211
C          3.49136       41.29030       22.81538
C          4.10651       40.04428       23.39441
O          3.96698       38.95668       22.85669
O          4.82702       40.13303       24.52868
H          1.22502       41.21433       19.33629
H          3.06200       42.96735       20.72572
H          3.36246       40.57622       20.76901
H          1.87906       40.31473       21.74151
H          2.82326       41.72851       23.58744
H          4.31098       42.01184       22.60648
N          0.03047       42.68934       22.33181
C         -0.64848       41.47610       21.91987
H         -1.63301       41.74120       21.48243
H         -0.10773       40.89464       21.15956
H         -0.81233       40.82740       22.80555
H         -0.47576       43.27840       23.01099
Ca        -7.34513       47.05224       31.29097
O         -6.29268       45.24085       28.94493
H         -5.69060       45.78620       29.51024
H         -6.23914       45.66286       28.05094
O        -11.15086       44.96471       30.61008
H        -11.53763       45.23778       29.74031
H        -11.85224       45.18846       31.27203
O         -9.49317       46.52829       28.61717
H        -10.10276       46.87028       27.91586
H         -8.75398       46.10352       28.11633
O         -5.21298       45.56499       32.73258
H         -4.86998       46.42134       32.37184
H         -5.42033       45.02292       31.93012

Ca 1.0



