%chk=apoCaM-CA-Ng.loop1.water3.frame307.chk
%nprocshared=20
%mem=10GB
%nosave
#b3lyp/svp scf=(tight,noincore,xqc) Test 
#IOP(5/87=12) Density=Current Pop=(MK,readradii) iop(6/33=2) iop(6/42=6)

apoCaM-CA-Ng.loop1.water3.frame307 

   0  1 
C         43.22338       66.55458       30.55129
C         44.17339       67.58280       31.09387
O         44.95177       67.28483       31.98816
H         42.17732       66.90786       30.66395
H         43.43297       66.40293       29.46917
H         43.34214       65.58221       31.07214
N         44.18130       68.82582       30.54805
C         45.14874       69.86044       30.89748
C         44.82906       70.57113       32.21891
O         45.53761       71.51599       32.52691
C         45.20417       70.91745       29.75985
C         45.59566       70.33323       28.42029
O         46.61803       70.70138       27.86877
O         44.80961       69.43455       27.79806
H         43.51880       69.00412       29.77807
H         46.16710       69.41272       30.95366
H         45.95819       71.68735       30.02422
H         44.22283       71.42791       29.65740
N         43.77785       70.23276       33.02816
C         43.33943       71.07577       34.14859
C         43.39634       70.35957       35.49266
O         43.09044       69.17551       35.50607
C         41.89124       71.52338       33.88782
C         41.75941       72.23304       32.52957
C         40.43454       72.98920       32.37989
C         40.42154       74.27593       33.22915
N         39.17623       75.01577       33.04781
H         43.20166       69.41028       32.80088
H         43.93347       72.00028       34.19696
H         41.59589       72.19368       34.70719
H         41.18973       70.66021       33.91230
H         41.83659       71.45856       31.73492
H         42.58772       72.95507       32.37892
H         39.58269       72.32228       32.63695
H         40.33340       73.29202       31.31551
H         41.27454       74.92068       32.91637
H         40.54271       74.05086       34.30761
H         39.22653       75.90222       33.60057
H         39.03996       75.25296       32.03863
H         38.37186       74.44425       33.39345
N         43.66595       70.97102       36.69943
C         44.03347       72.37181       36.97031
C         42.95999       73.34259       36.52662
O         43.16349       74.06235       35.55869
C         45.45937       72.70839       36.48891
C         46.45843       71.82988       37.18141
O         46.03316       70.92243       38.08400
O         47.63984       71.89491       36.88595
H         43.59695       70.36977       37.53599
H         44.12074       72.51666       38.06855
H         45.70270       73.76674       36.72465
H         45.56285       72.55783       35.40601
N         41.78032       73.46102       37.20604
C         41.53435       72.78292       38.47598
C         40.20065       73.13725       39.11123
O         39.37564       73.76885       38.46741
H         41.08237       74.12385       36.83749
H         42.31730       73.13336       39.18096
H         41.60214       71.68045       38.35930
N         39.91440       72.82568       40.41190
C         40.84651       72.16902       41.32772
C         41.59579       73.20205       42.15060
O         41.28840       74.38444       42.06883
C         40.10609       71.14235       42.21570
C         39.02755       71.76620       43.06746
O         37.86554       71.41634       42.93596
O         39.33621       72.70345       43.98480
H         39.02828       73.18544       40.79982
H         41.61635       71.61256       40.75423
H         40.82687       70.62951       42.88771
H         39.65245       70.36933       41.55810
N         42.63207       72.81693       42.94944
C         43.40443       73.74747       43.75676
C         44.21357       74.75359       42.95866
O         44.83866       75.59293       43.59332
H         42.87580       71.81703       43.00841
H         44.11801       73.17576       44.38857
H         42.70925       74.29169       44.43225
N         44.26017       74.75618       41.59246
C         44.98583       75.75919       40.82033
C         43.99421       76.58765       40.01322
O         42.82288       76.23288       39.94238
C         46.02230       75.05802       39.89724
C         47.03166       74.22385       40.69047
O         46.73345       76.00605       39.14826
H         43.75189       74.03816       41.05770
H         45.51795       76.46126       41.49952
H         45.45738       74.38189       39.21207
H         47.06709       75.54225       38.33570
H         47.73543       73.72767       39.98716
H         47.61585       74.87663       41.37337
H         46.52170       73.43535       41.28060
N         44.40222       77.72626       39.38806
C         43.54214       78.54425       38.53518
C         44.04542       78.55676       37.09060
O         43.37223       79.13193       36.24911
C         43.42039       80.00144       39.09037
C         44.80476       80.70319       39.19912
C         42.68076       79.99917       40.44058
C         44.71966       82.19643       39.52238
H         45.38171       78.02023       39.51657
H         42.51931       78.10760       38.48992
H         42.79168       80.57686       38.37445
H         45.33456       80.61985       38.22703
H         45.42769       80.21380       39.97762
H         41.68668       79.51646       40.32896
H         43.26079       79.45040       41.21217
H         42.49618       81.03196       40.79989
H         45.74524       82.62316       39.54828
H         44.13893       82.72607       38.73799
H         44.25721       82.37875       40.51269
N         45.23378       77.97869       36.73875
C         45.81284       78.03429       35.40538
C         46.22448       76.64008       34.93711
O         46.92451       75.93214       35.64500
C         46.99095       79.03987       35.38304
C         48.07919       78.77033       36.42711
O         46.49504       80.33656       35.60276
H         45.81042       77.53049       37.45350
H         45.07938       78.44129       34.67530
H         47.47257       79.00160       34.37766
H         46.05489       80.62631       34.76010
H         48.88290       79.52883       36.31985
H         47.67021       78.86123       37.45608
H         48.52874       77.76712       36.29557
N         45.82810       76.20855       33.70833
C         46.11708       74.89215       33.13840
C         47.60401       74.54210       33.10531
O         48.40293       75.34575       32.64787
C         45.51575       74.78353       31.70798
C         46.11980       75.77056       30.69253
O         44.12887       74.98885       31.78459
H         45.26774       76.86263       33.14431
H         45.59426       74.12880       33.74982
H         45.71233       73.75199       31.33964
H         43.73302       74.60051       30.96095
H         45.63174       75.63180       29.70574
H         45.96831       76.82337       31.00660
H         47.20271       75.59037       30.54653
N         48.01924       73.30350       33.51712
C         49.38231       72.78605       33.36517
C         49.50283       71.40726       34.02708
O         50.42652       71.21320       34.80404
C         49.83048       72.76551       31.86899
C         49.04670       71.78764       30.98066
C         49.34274       71.91847       29.47618
C         48.78249       73.22227       28.87459
N         48.89294       73.22497       27.41538
H         47.31264       72.67700       33.92294
H         50.08415       73.47447       33.88665
H         50.90976       72.50417       31.80304
H         49.73821       73.78875       31.46453
H         47.95908       71.93044       31.13143
H         49.31888       70.75579       31.28722
H         48.83542       71.06746       28.97851
H         50.43217       71.82502       29.27351
H         49.32364       74.10177       29.28222
H         47.70735       73.31823       29.14483
H         48.49717       74.11942       27.04489
H         49.89308       73.14440       27.12345
H         48.34487       72.43207       27.01057
N         48.60199       70.40762       33.76811
C         48.65414       69.07734       34.36734
C         49.11233       68.09924       33.31279
O         48.45577       67.95016       32.29070
C         47.27358       68.69509       34.96646
C         47.16115       67.23023       35.45128
C         48.18369       66.76580       36.46700
O         48.96324       65.88101       36.15558
O         48.22721       67.23733       37.72896
H         47.84393       70.58214       33.09463
H         49.39297       69.05128       35.19182
H         46.49111       68.82360       34.18332
H         47.02517       69.39271       35.78939
H         47.25720       66.58015       34.55465
H         46.14194       67.05582       35.86150
N         50.26417       67.39953       33.50662
C         50.77853       66.46235       32.53712
H         51.72308       66.01596       32.91608
H         50.04195       65.64987       32.36768
H         50.99161       66.98711       31.58226
H         50.80383       67.53650       34.37521
Ca        47.19215       69.07707       38.42327
O         49.90062       68.06804       40.19553
H         50.73534       67.93711       39.67915
H         49.43163       67.19854       40.13162
O         48.26795       70.93351       40.98657
H         47.90696       71.06773       41.89882
H         49.13233       71.41657       40.98855
O         50.11816       69.89615       37.77487
H         49.26395       69.97252       37.28511
H         50.05894       70.59421       38.47348

Ca 1.0



