%chk=apoCaM-CA-Ng.loop3.water4.frame173.chk
%nprocshared=20
%mem=10GB
%nosave
#b3lyp/svp scf=(tight,noincore,xqc) Test 
#IOP(5/87=12) Density=Current Pop=(MK,readradii) iop(6/33=2) iop(6/42=6)

apoCaM-CA-Ng.loop3.water4.frame173 

   0  1 
C         45.64565       44.97450       27.30592
C         44.22735       44.51530       27.14050
O         43.43099       45.25094       26.58070
H         46.32714       44.27154       26.78240
H         45.78479       45.98934       26.87312
H         45.90804       45.00717       28.38356
N         43.84581       43.28662       27.59600
C         42.49879       42.73098       27.45324
C         41.45148       43.47742       28.27998
O         40.27093       43.29790       28.02118
C         42.08209       42.62299       25.96355
C         43.03241       41.80671       25.12478
O         42.77363       41.61351       23.94894
O         44.15412       41.27223       25.64669
H         44.55887       42.69324       28.04727
H         42.50265       41.69061       27.84764
H         41.97605       43.62902       25.50943
H         41.08839       42.12830       25.90847
N         41.80368       44.28652       29.32097
C         40.85504       45.01845       30.16068
C         41.07375       46.52463       30.00328
O         40.58337       47.28850       30.82430
C         41.07352       44.63129       31.64286
C         40.89851       43.15413       32.06646
C         39.45587       42.59387       32.06581
C         38.91046       42.06994       30.72656
N         39.64620       40.89176       30.25598
H         42.80323       44.41051       29.54161
H         39.79998       44.82096       29.89358
H         40.39032       45.23545       32.28058
H         42.11487       44.92105       31.90916
H         41.19921       43.15451       33.13779
H         41.61246       42.48468       31.54678
H         38.77223       43.36608       32.48058
H         39.42510       41.72695       32.76178
H         38.90103       42.85544       29.95803
H         37.84993       41.77240       30.88278
H         39.57959       40.12414       30.96452
H         39.21888       40.55320       29.36402
H         40.64919       41.11582       30.07502
N         41.79106       47.02346       28.95609
C         42.14890       48.42472       28.79793
C         40.92121       49.32129       28.80036
O         39.94846       49.01953       28.12371
C         42.95075       48.62050       27.49289
C         43.64633       49.94925       27.49528
O         43.36320       50.80741       26.67882
O         44.60825       50.18819       28.40653
H         42.12302       46.37413       28.23724
H         42.81841       48.69227       29.64655
H         42.27487       48.50452       26.61739
H         43.75105       47.85420       27.40743
N         40.92821       50.46928       29.52938
C         39.81438       51.39806       29.62717
C         39.28880       51.87944       28.28975
O         38.07575       51.94078       28.14648
H         41.78406       50.71033       30.05023
H         40.14832       52.27947       30.21679
H         38.98145       50.92350       30.19082
N         40.12080       52.22665       27.26375
C         39.62492       52.71436       25.97311
C         39.87443       51.73161       24.82559
O         39.54700       52.06027       23.69373
C         40.17027       54.12750       25.68420
C         41.64085       54.18455       25.36692
N         42.05569       54.66523       24.17357
O         42.46542       53.82098       26.19096
H         41.13611       52.11997       27.39868
H         38.52140       52.84037       26.01620
H         39.96086       54.78474       26.55578
H         39.60396       54.54067       24.82105
H         41.38517       54.98985       23.46129
H         43.05698       54.72077       23.96547
N         40.36444       50.47818       25.04990
C         40.50153       49.46368       24.01560
C         41.61094       49.77329       23.04555
O         41.37191       49.82620       21.84781
H         40.58617       50.18812       26.00864
H         39.53039       49.31874       23.49325
H         40.76674       48.49891       24.50087
N         42.87206       49.95892       23.51490
C         44.04594       50.17403       22.68095
C         44.57416       51.57916       22.84465
O         44.08641       52.33269       23.67648
C         45.13811       49.16561       23.10780
C         44.78008       47.75944       22.72132
C         44.98538       47.34244       21.39774
C         44.26351       46.85239       23.66041
C         44.68377       46.03555       21.01511
C         43.94532       45.54662       23.26922
C         44.15872       45.13516       21.94451
O         43.86484       43.88106       21.55082
H         43.01108       49.93350       24.53101
H         43.79708       50.06115       21.60317
H         45.27540       49.24574       24.21014
H         46.13118       49.39204       22.66254
H         45.39661       48.02768       20.66676
H         44.09593       47.15934       24.68568
H         44.85915       45.72235       19.99405
H         43.53630       44.85424       23.99151
H         43.49122       43.22782       22.15572
N         45.60338       51.99026       22.05263
C         46.21814       53.30419       22.15988
C         45.21970       54.37198       21.73865
O         44.89717       55.21452       22.55699
C         47.54848       53.38799       21.34952
C         48.54779       52.24150       21.69527
C         48.23864       54.75032       21.56542
C         48.99337       52.18355       23.16108
H         45.96841       51.32128       21.36043
H         46.49613       53.46216       23.21974
H         47.30879       53.28992       20.26770
H         49.45160       52.35006       21.05821
H         48.11021       51.25594       21.44118
H         47.58903       55.58821       21.27016
H         48.49219       54.91312       22.63233
H         49.16573       54.81074       20.95719
H         49.68776       51.32874       23.29871
H         49.53071       53.10575       23.45870
H         48.12800       52.02695       23.83443
N         44.66735       54.38920       20.48866
C         43.67394       55.39113       20.08897
C         44.24069       56.80561       20.07372
O         43.46939       57.74517       20.20973
C         43.07637       55.06663       18.71322
O         42.46867       53.80466       18.75003
H         44.93041       53.64632       19.82359
H         42.84431       55.35610       20.83140
H         43.88356       55.07457       17.94638
H         42.31154       55.83614       18.45945
H         42.04420       53.67631       17.86232
N         45.57710       57.03060       19.92053
C         46.21878       58.34089       19.96367
C         45.98183       59.04998       21.29421
O         45.88169       60.26834       21.31357
C         45.80043       59.20299       18.76209
H         46.19227       56.22128       19.76922
H         47.31588       58.17528       19.87421
H         44.71758       59.44258       18.79712
H         46.36994       60.15722       18.75580
H         46.01822       58.66522       17.81559
N         45.87451       58.33549       22.45233
C         45.64575       58.94269       23.75948
C         46.72677       58.52159       24.73163
O         47.51803       57.64702       24.40692
C         44.26899       58.52588       24.28325
H         45.94631       57.31419       22.40748
H         45.66932       60.05016       23.67804
H         44.20604       57.42132       24.38664
H         44.06534       58.99022       25.27120
H         43.48244       58.85880       23.57269
N         46.84853       59.15186       25.94189
C         47.87035       58.82060       26.93667
C         49.29496       58.99493       26.40415
O         50.22141       58.63924       27.11998
C         47.64796       57.38849       27.47070
C         46.27040       57.22981       28.13671
C         46.03597       55.79004       28.46462
O         46.78839       55.18748       29.21358
O         45.03517       55.13892       27.84840
H         46.19006       59.91044       26.17200
H         47.76545       59.50331       27.80917
H         48.42601       57.13736       28.22590
H         47.74823       56.66255       26.63933
H         45.47337       57.54901       27.43147
H         46.20287       57.85518       29.05326
N         49.55771       59.54595       25.17981
C         50.88822       59.66842       24.62286
H         51.66913       59.24204       25.28538
H         50.92297       59.12749       23.65288
H         51.11397       60.73949       24.44261
H         48.79755       59.91163       24.59298
Ca        45.10066       52.90353       27.68532
O         45.96103       54.59785       25.33515
H         46.76008       55.13640       25.11380
H         45.19853       55.21013       25.18430
O         47.10049       51.06912       26.18565
H         47.97766       51.00297       26.64001
H         47.13879       50.38331       25.47297
O         43.04693       52.84598       29.63565
H         42.69025       53.76850       29.62162
H         43.89133       52.90743       30.14917
O         46.99212       51.85744       29.64255
H         47.70807       51.29665       29.25211
H         47.45927       52.66723       29.96723

Ca 1.0



