%chk=apoCaM-CA-Ng.loop1.water3.frame755.chk
%nprocshared=20
%mem=10GB
%nosave
#b3lyp/svp scf=(tight,noincore,xqc) Test 
#IOP(5/87=12) Density=Current Pop=(MK,readradii) iop(6/33=2) iop(6/42=6)

apoCaM-CA-Ng.loop1.water3.frame755 

   0  1 
C        -28.20085       42.45788       22.35863
C        -28.01076       43.71132       21.55941
O        -28.98768       44.28785       21.10296
H        -29.27735       42.19709       22.43638
H        -27.65527       41.61987       21.87830
H        -27.79919       42.61331       23.38332
N        -26.75755       44.20953       21.38449
C        -26.46984       45.46475       20.69820
C        -25.51140       45.26674       19.52747
O        -24.94903       44.19209       19.36912
C        -26.03699       46.53825       21.73958
C        -25.40030       45.97589       23.00478
O        -24.17860       45.41208       23.01829
O        -26.02967       46.01688       24.05053
H        -25.96783       43.69674       21.80788
H        -27.39251       45.85358       20.21104
H        -26.98815       46.99816       22.09051
H        -25.45029       47.36318       21.28046
N        -25.38233       46.26130       18.59637
C        -24.61240       46.15889       17.35657
C        -23.59205       47.27759       17.29262
O        -23.95785       48.43640       17.43890
C        -25.56071       46.22928       16.13512
C        -24.78962       46.22871       14.79493
C        -25.73785       46.19884       13.58669
C        -25.00171       46.30316       12.23526
N        -24.38013       47.61633       12.03653
H        -25.91254       47.13434       18.74607
H        -24.09173       45.17801       17.29097
H        -26.17907       47.15235       16.18503
H        -26.24116       45.35007       16.17267
H        -24.11516       45.34559       14.74162
H        -24.17347       47.14850       14.75461
H        -26.47713       47.02578       13.65349
H        -26.29164       45.23474       13.61049
H        -25.74929       46.14766       11.42604
H        -24.23477       45.50176       12.14759
H        -25.09935       48.37100       12.12549
H        -23.60776       47.77847       12.71970
H        -23.97299       47.65892       11.07436
N        -22.29105       46.99248       17.00796
C        -21.23797       48.00833       16.92461
C        -19.93318       47.43552       16.38378
O        -19.79573       46.22390       16.27856
C        -21.01065       48.65171       18.31397
C        -20.99854       47.60059       19.37454
O        -22.01955       47.60549       20.23766
O        -20.16847       46.70545       19.39129
H        -22.05626       46.00713       16.82339
H        -21.55999       48.76917       16.18030
H        -21.86909       49.32390       18.52553
H        -20.09343       49.26589       18.38792
N        -18.92927       48.23787       15.92966
C        -18.95250       49.69297       15.89990
C        -19.14542       50.18314       14.49631
O        -19.72828       49.47209       13.68963
H        -18.10648       47.78422       15.50900
H        -17.99840       50.06483       16.33121
H        -19.77125       50.15297       16.47690
N        -18.74199       51.43451       14.14764
C        -18.95253       51.97231       12.81032
C        -18.30553       51.08599       11.75673
O        -19.02108       50.59780       10.89259
C        -18.50559       53.45033       12.69676
C        -17.03510       53.70377       12.90902
O        -16.45182       53.43109       14.09180
O        -16.36506       54.18573       12.00985
H        -18.29365       52.01791       14.86834
H        -20.05071       51.98011       12.62079
H        -19.07221       54.05519       13.43720
H        -18.78930       53.81126       11.68313
N        -16.96827       50.81503       11.76507
C        -16.34309       49.97664       10.75620
C        -16.72395       48.51107       10.85223
O        -16.33430       47.76914        9.96215
H        -16.36395       51.23305       12.48576
H        -15.23752       50.03056       10.85925
H        -16.60902       50.37512        9.75333
N        -17.42019       48.00431       11.91406
C        -17.73340       46.58544       12.06893
C        -16.96945       46.04169       13.26394
O        -16.36933       46.81716       13.99664
C        -19.26423       46.38096       12.24738
C        -20.08449       47.00941       11.11400
O        -19.59094       45.01865       12.36316
H        -17.68800       48.62900       12.68222
H        -17.39266       46.02333       11.17229
H        -19.57605       46.87934       13.19040
H        -19.36028       44.58014       11.50190
H        -19.81429       46.55687       10.13688
H        -21.16703       46.84336       11.30200
H        -19.91034       48.10294       11.06622
N        -16.90085       44.69969       13.49201
C        -16.13358       44.12279       14.59373
C        -14.69775       44.60671       14.47580
O        -14.22747       45.25919       15.39733
C        -16.27728       42.56745       14.60774
C        -17.75964       42.19324       14.90949
C        -15.33554       41.93011       15.64888
C        -18.07011       40.70005       14.80231
H        -17.36842       44.06966       12.82562
H        -16.54074       44.50125       15.55988
H        -15.99172       42.17558       13.60614
H        -18.43609       42.69794       14.19011
H        -18.03438       42.54741       15.92781
H        -15.40315       40.82408       15.62577
H        -14.27716       42.17741       15.42433
H        -15.57916       42.28793       16.67152
H        -17.50579       40.10647       15.54784
H        -19.15213       40.54010       14.99883
H        -17.84030       40.33410       13.77956
N        -13.96324       44.36844       13.35307
C        -12.63893       44.94695       13.13345
C        -11.90097       44.17746       12.04994
O        -12.39830       44.05143       10.94027
C        -12.70519       46.46998       12.80792
C        -13.57621       46.81040       11.59141
O        -13.19036       47.17550       13.92041
H        -14.37376       43.76948       12.62002
H        -12.04450       44.83637       14.06718
H        -11.65903       46.80193       12.60162
H        -12.80359       48.08957       13.88258
H        -14.62032       46.47949       11.75884
H        -13.57792       47.90971       11.43139
H        -13.19194       46.34285       10.66484
N        -10.69804       43.60726       12.34127
C         -9.91717       42.79964       11.41049
C         -8.74634       42.19345       12.17481
O         -8.66687       40.97617       12.26082
C         -9.46513       43.60850       10.15605
C         -8.73929       42.71131        9.14478
O         -8.64225       44.68504       10.52308
H        -10.33531       43.72540       13.30031
H        -10.56428       41.96486       11.05664
H        -10.36894       44.00520        9.64513
H         -8.58561       45.29093        9.73810
H         -8.46716       43.30013        8.24277
H         -7.81180       42.28581        9.58132
H         -9.40600       41.88138        8.82608
N         -7.82927       42.99377       12.79475
C         -6.73020       42.49453       13.60813
C         -6.81562       43.10413       14.99716
O         -6.94135       44.31717       15.10653
C         -5.38704       42.85983       12.95274
C         -4.22370       42.16682       13.68439
C         -2.87143       42.49291       13.04941
C         -1.75171       41.70649       13.74620
N         -0.44754       42.02791       13.17051
H         -7.91694       44.01627       12.70418
H         -6.76496       41.38455       13.67473
H         -5.24941       43.96395       12.94203
H         -5.39471       42.49821       11.90081
H         -4.38760       41.06676       13.63988
H         -4.19878       42.47745       14.75158
H         -2.67996       43.58437       13.14113
H         -2.88844       42.21893       11.97194
H         -1.94336       40.61541       13.63201
H         -1.74140       41.94677       14.83288
H          0.28668       41.45889       13.65061
H         -0.43822       41.80176       12.14944
H         -0.23629       43.04244       13.31122
N         -6.67850       42.32966       16.10910
C         -6.69494       42.89455       17.45461
C         -8.08397       43.40239       17.82447
O         -8.18634       44.58808       18.10566
C         -6.13694       41.91274       18.51191
C         -4.64659       41.61713       18.26489
C         -4.09757       40.68529       19.30512
O         -4.54561       39.55527       19.41654
O         -3.09579       41.08693       20.11079
H         -6.48802       41.32374       15.98581
H         -5.99690       43.76436       17.47956
H         -6.70687       40.96462       18.53542
H         -6.22415       42.38635       19.51550
H         -4.07715       42.57263       18.29933
H         -4.49597       41.15863       17.26513
N         -9.21192       42.63077       17.87238
C         -9.31161       41.22465       17.53703
H        -10.06114       41.09795       16.72863
H         -8.37150       40.78356       17.17633
H         -9.64967       40.65750       18.42947
H        -10.09103       43.08500       18.16556
Ca       -22.75287       45.86851       21.39333
O        -19.69783       43.69965       20.66430
H        -18.89659       43.52087       21.21748
H        -19.34207       43.83158       19.74960
O        -20.62980       46.81351       23.25048
H        -20.35205       46.57439       24.16990
H        -21.40490       47.41755       23.37437
O        -21.82968       43.93888       18.49235
H        -22.51704       43.22835       18.44766
H        -21.28121       43.80404       17.67899

Ca 1.0



