%chk=apoCaM-CA-Ng.loop2.water4.frame1293.chk
%nprocshared=20
%mem=10GB
%nosave
#b3lyp/svp scf=(tight,noincore,xqc) Test 
#IOP(5/87=12) Density=Current Pop=(MK,readradii) iop(6/33=2) iop(6/42=6)

apoCaM-CA-Ng.loop2.water4.frame1293 

   -2  1 
C         65.99837       60.06315      103.76878
C         65.49062       60.55478      102.43942
O         66.30606       60.60395      101.52923
H         66.82422       60.72631      104.10020
H         65.26043       60.01786      104.58265
H         66.40305       59.03761      103.63351
N         64.20252       60.92678      102.17245
C         63.05779       60.92953      103.09482
C         62.40086       62.31445      103.21825
O         61.48528       62.43692      104.02006
C         62.02105       59.86044      102.62891
C         61.48401       60.12954      101.24642
O         60.69306       59.28070      100.57479
O         61.80650       61.14129      100.66525
H         64.03406       61.20699      101.19639
H         63.36810       60.64799      104.11242
H         61.17158       59.80142      103.34355
H         62.53056       58.87376      102.61419
N         62.78564       63.38821      102.45762
C         62.17153       64.71492      102.54265
C         61.47830       65.12796      101.23542
O         61.00731       66.25448      101.16228
C         63.26627       65.72911      102.90062
H         63.54931       63.28255      101.77562
H         61.40649       64.75114      103.34864
H         64.04346       65.76153      102.10647
H         62.83602       66.74679      103.01917
H         63.75023       65.44675      103.86018
N         61.36175       64.27290      100.17496
C         60.79600       64.61613       98.86931
C         59.50795       63.84531       98.56814
O         59.08348       63.01500       99.36031
C         61.87104       64.33049       97.78761
C         62.16882       62.84894       97.70076
O         61.21215       61.99853       97.26697
O         63.24121       62.41225       98.08740
H         61.72605       63.33137      100.27526
H         60.54158       65.69800       98.84727
H         62.79036       64.89120       98.06931
H         61.54996       64.69233       96.78889
N         58.82879       64.11162       97.41366
C         57.56413       63.50205       97.02172
C         57.64687       62.05418       96.56519
O         58.69928       61.43934       96.60128
H         59.19086       64.85818       96.80218
H         57.16878       64.07188       96.15410
H         56.83135       63.60011       97.85237
N         56.51013       61.45313       96.11005
C         56.40674       60.04844       95.69966
C         57.19889       59.71886       94.43273
O         57.78791       60.59772       93.81921
C         54.91523       59.67464       95.48347
C         54.12406       59.72234       96.77236
N         53.57241       58.59458       97.27945
O         53.97752       60.77984       97.36611
H         55.65530       62.02972       96.10331
H         56.80303       59.40607       96.51609
H         54.83708       58.64309       95.08783
H         54.45376       60.34517       94.72497
H         53.68433       57.68725       96.80375
H         53.03769       58.62537       98.15968
N         57.22756       58.42326       93.98975
C         57.90556       57.94667       92.79163
C         59.41674       58.03342       92.89294
O         59.91116       58.59235       93.85835
H         56.71556       57.70827       94.52699
H         57.53898       58.49522       91.89744
H         57.63292       56.87964       92.67034
N         60.25097       57.50949       91.94319
C         59.79750       56.77173       90.76264
C         59.16526       55.42608       91.11265
O         58.54320       54.84595       90.23271
C         60.95459       56.52194       89.75547
C         61.53776       57.82590       89.18735
O         61.95889       55.71057       90.32131
H         61.26130       57.66314       92.07644
H         59.03268       57.39641       90.25009
H         60.54514       55.97196       88.87939
H         62.55660       56.27922       90.87245
H         61.97744       58.45845       89.98580
H         62.33273       57.58894       88.44852
H         60.74129       58.40383       88.67234
N         59.30562       54.85176       92.34762
C         58.67018       53.59221       92.73213
C         57.82447       53.80485       93.99003
O         58.33251       54.41964       94.91781
C         59.65846       52.39670       92.89494
C         60.68604       52.43363       94.05907
C         60.33964       52.06409       91.55550
C         61.86062       53.40528       93.92721
H         59.87029       55.33707       93.05160
H         58.01978       53.28488       91.89955
H         59.00147       51.53075       93.13059
H         61.13516       51.41728       94.12388
H         60.16366       52.61347       95.02025
H         60.94924       51.14002       91.65057
H         59.57509       51.88227       90.76958
H         60.99092       52.89567       91.21719
H         62.43884       53.20876       93.00124
H         61.54573       54.45882       93.95465
H         62.54444       53.25361       94.78863
N         56.52876       53.38071       94.13060
C         55.80850       52.52352       93.18996
C         55.20641       51.30164       93.87134
O         55.11539       51.25047       95.08930
C         54.76735       53.33745       92.39167
C         53.68475       54.00424       93.20582
O         53.61244       53.86325       94.54326
O         52.85234       54.69151       92.63637
H         56.03460       53.66642       94.98935
H         56.50729       52.09083       92.45878
H         54.28160       52.67529       91.64297
H         55.31403       54.13216       91.83755
N         54.84160       50.23445       93.10273
C         54.27794       48.98857       93.62533
C         54.35757       47.92281       92.53418
O         53.93415       48.20754       91.42288
C         52.82625       49.22001       94.11726
C         52.23316       47.98396       94.76638
C         51.87443       46.85763       93.99950
C         52.04394       47.94245       96.16008
C         51.36489       45.71166       94.61640
C         51.53346       46.79319       96.77237
C         51.19900       45.67736       96.00196
H         55.02856       50.30556       92.09093
H         54.88351       48.66028       94.49400
H         52.16501       49.57036       93.29529
H         52.86226       50.03340       94.87286
H         51.99041       46.85718       92.92486
H         52.30726       48.79183       96.77779
H         51.10274       44.84785       94.01905
H         51.40298       46.76536       97.84642
H         50.80980       44.78671       96.47823
N         54.86646       46.66486       92.75154
C         55.18942       46.08102       94.04631
C         56.53173       46.48477       94.62278
O         56.82649       46.01842       95.71429
C         55.11172       44.57585       93.77275
C         55.65327       44.49322       92.36339
C         54.94471       45.67022       91.69917
H         54.41853       46.31918       94.80798
H         55.60349       43.92591       94.52754
H         54.03592       44.28690       93.71938
H         56.74420       44.71285       92.41320
H         55.50608       43.52135       91.84732
H         55.52928       46.01614       90.81952
H         53.90899       45.40459       91.39203
N         57.37080       47.37153       94.01075
C         58.51789       47.92998       94.71949
C         59.62204       48.31568       93.74014
O         59.31469       49.04566       92.80996
C         58.00685       49.13600       95.52835
C         59.05735       49.71226       96.48130
C         58.42921       50.74713       97.37112
O         58.82939       51.89926       97.35948
O         57.42318       50.40031       98.19888
H         57.07926       47.80716       93.12456
H         58.86891       47.19807       95.46221
H         57.15405       48.77615       96.14715
H         57.62633       49.92880       94.84801
H         59.89327       50.15076       95.89727
H         59.46289       48.90555       97.12943
N         60.92642       47.90764       93.83016
C         61.52741       47.09469       94.87247
H         62.35335       47.66876       95.34355
H         60.84830       46.79419       95.68321
H         61.95346       46.17464       94.42130
H         61.57437       48.22521       93.09196
Ca        60.55572       60.20815       98.51022
O         61.72172       58.85933       96.10099
H         60.78282       58.62496       96.31206
H         61.65553       59.67724       95.54677
O         57.60202       59.81622       99.12027
H         57.00804       60.45610       99.58655
H         57.15541       58.93873       99.22289
O         59.50884       57.26964       98.42891
H         60.02842       56.97280       99.21772
H         58.66768       56.74990       98.47485
O         63.15890       58.48094       99.13402
H         63.54966       59.35645       98.88618
H         63.12595       57.97195       98.28600

Ca 1.0



