%chk=apoCaM-CA-Ng.loop1.water4.frame326.chk
%nprocshared=20
%mem=10GB
%nosave
#b3lyp/svp scf=(tight,noincore,xqc) Test 
#IOP(5/87=12) Density=Current Pop=(MK,readradii) iop(6/33=2) iop(6/42=6)

apoCaM-CA-Ng.loop1.water4.frame326 

   0  1 
C         57.54272       61.69166       86.92519
C         56.93964       63.00585       86.52020
O         57.44302       63.63107       85.59779
H         58.59374       61.84432       87.24507
H         56.98151       61.22785       87.76452
H         57.51884       60.99202       86.06330
N         55.83538       63.48117       87.15869
C         55.16785       64.72029       86.77468
C         55.97079       65.97572       87.12877
O         55.47009       67.04402       86.82636
C         53.77239       64.82072       87.44820
C         52.82674       63.72369       87.02054
O         53.09170       62.43349       87.30084
O         51.79278       64.00524       86.43503
H         55.42663       62.90765       87.91169
H         54.99195       64.70745       85.67510
H         53.30425       65.78921       87.16093
H         53.87675       64.80864       88.55473
N         57.18297       65.96366       87.76649
C         57.84748       67.19080       88.22584
C         59.17891       67.45119       87.54036
O         59.83412       66.48249       87.18245
C         58.17957       67.05573       89.72770
C         56.97063       67.06065       90.66343
C         57.47892       67.07820       92.11773
C         56.37027       67.20649       93.16822
N         55.48893       66.04080       93.19094
H         57.63694       65.06645       87.98527
H         57.19815       68.06126       88.04879
H         58.82669       67.89827       90.02921
H         58.78099       66.13393       89.89304
H         56.33548       66.17255       90.46304
H         56.37670       67.98063       90.48269
H         58.14203       67.96354       92.24550
H         58.08279       66.16641       92.32010
H         55.77911       68.13082       92.98414
H         56.85748       67.30484       94.16438
H         56.04795       65.17294       93.35971
H         54.80222       66.15556       93.97078
H         54.96143       65.96022       92.29339
N         59.75875       68.70193       87.46363
C         59.13559       70.01997       87.69593
C         58.44889       70.19471       89.04523
O         57.22917       70.18989       89.09316
C         58.22217       70.37725       86.51544
C         59.04783       70.42385       85.26561
O         59.97298       71.21040       85.13898
O         58.79347       69.53129       84.31236
H         60.73027       68.73676       87.11660
H         59.92204       70.80369       87.64526
H         57.74417       71.36408       86.66372
H         57.41202       69.62609       86.40758
N         59.13383       70.42677       90.19832
C         60.56591       70.65870       90.22562
C         61.09323       70.99477       91.61151
O         60.36183       70.87300       92.58380
H         58.58209       70.52048       91.06458
H         60.74663       71.55108       89.59007
H         61.11486       69.78444       89.81551
N         62.34715       71.50174       91.79934
C         63.27835       71.78587       90.71472
C         63.23801       73.27137       90.41172
O         63.62633       74.07137       91.25151
C         64.70437       71.26214       91.00808
C         65.38702       71.89981       92.19397
O         64.90050       71.74055       93.43916
O         66.41402       72.53982       92.03284
H         62.59413       71.80279       92.75251
H         62.96611       71.24753       89.79802
H         65.32397       71.44858       90.10238
H         64.66897       70.16343       91.17062
N         62.72856       73.70518       89.22240
C         62.65716       75.10191       88.82997
C         61.22900       75.55676       88.60473
O         60.82665       76.54616       89.20050
H         62.38420       73.00805       88.54579
H         63.22162       75.22052       87.88054
H         63.13575       75.76386       89.58422
N         60.41684       74.90800       87.72103
C         59.07907       75.38435       87.35924
C         58.15821       75.42588       88.56778
O         57.95789       74.39919       89.20351
C         58.42235       74.49613       86.27518
C         59.25050       74.39926       84.98825
O         57.16462       75.03389       85.95586
H         60.78928       74.06576       87.26219
H         59.17956       76.40601       86.92987
H         58.29747       73.48164       86.70540
H         56.67108       74.33599       85.45304
H         60.24078       73.93978       85.16668
H         58.71681       73.75340       84.25833
H         59.39149       75.40476       84.54175
N         57.54538       76.59246       88.92608
C         56.66063       76.69477       90.08590
C         55.38175       75.85353       89.92287
O         54.69902       75.63489       90.91411
C         56.34465       78.20304       90.38009
C         55.82377       78.48757       91.81070
C         55.36130       78.78795       89.34619
C         56.87150       78.20757       92.89349
H         57.75775       77.44086       88.37994
H         57.25253       76.28536       90.92871
H         57.29615       78.77459       90.28853
H         54.89156       77.92505       92.02207
H         55.58830       79.57276       91.88673
H         55.22691       79.87766       89.51747
H         55.73837       78.65164       88.31199
H         54.36467       78.30454       89.42824
H         57.13440       77.13375       92.94993
H         57.79259       78.79889       92.69560
H         56.47299       78.51177       93.88381
N         54.97264       75.39738       88.69711
C         53.75826       74.61299       88.46379
C         54.10631       73.31435       87.74950
O         54.70922       73.35974       86.68696
C         52.70726       75.43491       87.67002
C         53.17310       75.94742       86.29805
O         52.31505       76.53334       88.45277
H         55.52892       75.64558       87.86850
H         53.26806       74.35814       89.42982
H         51.82964       74.76158       87.51108
H         51.36820       76.73044       88.22567
H         53.44216       75.11700       85.61700
H         52.34455       76.50759       85.81526
H         54.03665       76.63620       86.40222
N         53.76795       72.10553       88.28102
C         54.13931       70.84179       87.63936
C         53.45453       70.66064       86.28337
O         52.55305       71.41884       85.95200
C         53.82357       69.61792       88.56897
C         52.32300       69.38728       88.78841
O         54.45899       69.69158       89.82636
H         53.27703       72.08975       89.18778
H         55.23806       70.86550       87.47389
H         54.21495       68.71265       88.07229
H         54.85924       70.58668       89.96332
H         51.85111       70.24916       89.30103
H         51.80495       69.21162       87.82331
H         52.17661       68.48034       89.41369
N         53.81235       69.62042       85.47280
C         53.05744       69.22708       84.28849
C         53.98646       68.64171       83.23036
O         54.10445       69.24835       82.17459
C         51.92384       68.29516       84.75902
C         51.03777       67.70487       83.65661
C         49.80754       67.04537       84.30516
C         48.92436       66.31590       83.28846
N         47.70920       65.81121       83.93150
H         54.55743       68.99332       85.79568
H         52.57931       70.12617       83.83606
H         51.28422       68.90753       85.43336
H         52.34176       67.45567       85.35734
H         51.62910       66.96040       83.07978
H         50.68830       68.50391       82.96753
H         49.20861       67.84260       84.80042
H         50.12797       66.31399       85.07980
H         49.49749       65.46590       82.85559
H         48.63799       67.00692       82.46583
H         47.13219       66.61252       84.27832
H         47.14736       65.27123       83.23480
H         47.95079       65.18364       84.73286
N         54.69506       67.49217       83.44130
C         55.68231       66.97391       82.49116
C         55.28651       65.60651       81.98737
O         55.16519       64.67986       82.77671
C         57.05817       66.96043       83.17493
C         58.25435       66.39578       82.37558
C         58.47164       66.96631       80.99006
O         57.75774       66.61561       80.06684
O         59.50023       67.80267       80.74306
H         54.56035       66.98208       84.32710
H         55.77177       67.65397       81.61737
H         57.00034       66.38877       84.12918
H         57.26818       68.01090       83.43052
H         58.17181       65.29199       82.28107
H         59.15778       66.59327       82.99401
N         55.09386       65.41796       80.65010
C         54.76662       64.14442       80.04882
H         53.80483       64.23574       79.50309
H         55.56345       63.87340       79.32335
H         54.68118       63.33198       80.79871
H         55.19755       66.21756       80.00714
Ca        59.96417       69.13954       82.46260
O         58.83508       71.14216       80.48166
H         58.25756       70.34755       80.35599
H         59.38901       71.17819       79.66184
O         61.32943       72.73887       82.84491
H         61.93845       73.41225       83.24007
H         60.79542       73.24494       82.18231
O         62.65035       67.33875       82.02381
H         62.89775       67.11539       81.09140
H         61.83402       66.80603       82.19808
O         62.29157       70.82593       80.56592
H         62.20056       71.07743       79.61257
H         63.10710       71.29811       80.87016

Ca 1.0



