%chk=apoCaM-CA-Ng.loop1.water1.frame820.chk
%nprocshared=20
%mem=10GB
%nosave
#b3lyp/svp scf=(tight,noincore,xqc) Test 
#IOP(5/87=12) Density=Current Pop=(MK,readradii) iop(6/33=2) iop(6/42=6)

apoCaM-CA-Ng.loop1.water1.frame820 

   0  1 
C         34.44314       83.67039       56.73939
C         35.28671       82.48892       56.35641
O         35.09873       81.41160       56.90335
H         33.69601       83.39207       57.51274
H         35.09407       84.47342       57.14557
H         33.90727       84.05682       55.84681
N         36.24663       82.62687       55.40184
C         37.12008       81.53598       54.97780
C         37.97227       81.01360       56.13403
O         38.52835       81.79703       56.88926
C         37.95390       81.92649       53.73907
C         38.84122       83.13312       53.86637
O         38.91830       83.84324       55.00784
O         39.48854       83.48934       52.89561
H         36.34174       83.54920       54.94890
H         36.47917       80.70074       54.61622
H         37.24201       82.13393       52.90925
H         38.57529       81.05377       53.44106
N         38.06280       79.66825       56.34284
C         38.70379       79.04026       57.50351
C         40.20812       79.26523       57.61217
O         40.75847       78.88777       58.63883
C         38.51542       77.50674       57.43887
C         37.05410       77.03873       57.47392
C         36.99607       75.53794       57.16690
C         35.55636       75.01922       57.16612
N         35.51669       73.61237       56.76891
H         37.59737       79.06162       55.65309
H         38.22067       79.44269       58.42212
H         39.04153       77.01334       58.28711
H         38.99075       77.16129       56.49236
H         36.44818       77.55811       56.70497
H         36.61658       77.26145       58.47145
H         37.59699       74.97064       57.91119
H         37.43271       75.37005       56.15652
H         34.94637       75.61330       56.44944
H         35.12166       75.13566       58.18331
H         35.88824       73.50655       55.79619
H         36.08694       73.03338       57.42710
H         34.52650       73.27863       56.78798
N         40.95817       79.78288       56.59880
C         42.41759       79.87848       56.67251
C         42.89772       80.64521       57.95972
O         42.05679       81.65576       58.45647
C         43.02575       80.16300       55.25007
C         42.54399       81.22944       54.27023
O         42.93447       81.14882       53.11605
O         41.70843       82.23715       54.57514
H         40.48973       80.05710       55.72381
H         42.81008       78.85857       56.88371
H         42.79896       79.22177       54.69821
H         44.12692       80.22756       55.30348
N         44.31657       81.00508       58.10510
C         45.31573       79.92524       57.98968
C         45.07975       78.68829       58.84731
O         44.91529       78.79396       60.05369
H         44.42920       81.42708       59.05685
H         46.29669       80.35041       58.29260
H         45.43578       79.63984       56.92897
N         45.13319       77.46162       58.25362
C         44.99243       76.16838       58.92558
C         46.08809       75.89287       59.95196
O         47.25450       76.13300       59.67050
C         45.07779       75.05208       57.85035
C         44.94990       73.66337       58.41895
O         43.83001       73.29584       59.06887
O         45.86395       72.86327       58.29208
H         45.29077       77.44627       57.23360
H         43.99178       76.10587       59.40713
H         46.05610       75.13416       57.32237
H         44.27144       75.19692       57.10040
N         45.78465       75.14893       61.05916
C         46.79463       74.49339       61.87770
C         47.59479       75.38611       62.78893
O         48.52568       74.87307       63.39357
H         44.80182       74.88503       61.22589
H         47.48782       73.94734       61.20105
H         46.30532       73.73394       62.52608
N         47.28647       76.69660       62.99011
C         48.06205       77.55269       63.88337
C         48.58969       78.75768       63.13064
O         48.25083       78.95599       61.97239
C         47.21834       77.96478       65.12550
C         45.91567       78.70766       64.78814
O         46.94191       76.84370       65.92781
H         46.46795       77.10147       62.51390
H         48.95607       77.01424       64.26782
H         47.82983       78.64949       65.75006
H         46.34690       76.23827       65.41475
H         45.41382       79.02105       65.72852
H         46.11961       79.61219       64.18089
H         45.21709       78.05235       64.22843
N         49.43958       79.61365       63.76184
C         49.92545       80.85554       63.17302
C         51.44464       80.84308       63.09412
O         51.98994       81.19619       62.05651
C         49.45732       82.07836       64.02166
C         47.97501       81.94135       64.45761
C         49.67820       83.37355       63.20894
C         47.49991       83.06218       65.38207
H         49.70879       79.39576       64.73075
H         49.50338       80.98477       62.15092
H         50.06265       82.11603       64.95504
H         47.86822       81.01095       65.05127
H         47.30807       81.87355       63.57142
H         50.73797       83.47792       62.89907
H         49.04568       83.36038       62.29292
H         49.42352       84.27619       63.79695
H         46.46959       82.83704       65.72954
H         48.16282       83.13145       66.27154
H         47.47577       84.03791       64.85893
N         52.19035       80.44686       64.16737
C         53.64252       80.53227       64.24180
C         54.02823       81.21070       65.55027
O         53.17131       81.45869       66.39146
C         54.27158       79.12019       64.11428
C         54.00546       78.53672       62.72154
O         55.66195       79.18096       64.30232
H         51.71050       80.06974       64.99652
H         54.03108       81.16603       63.41239
H         53.81824       78.46708       64.89669
H         55.96192       78.26941       64.55810
H         54.46199       77.52829       62.63925
H         52.91820       78.44676       62.52407
H         54.46171       79.19011       61.94478
N         55.31034       81.60130       65.75587
C         55.74916       82.34077       66.92738
C         55.86538       83.79550       66.52473
O         55.26236       84.63574       67.17651
C         57.04624       81.71430       67.49782
C         57.51504       82.41414       68.77856
O         58.07401       81.74637       66.54086
H         55.98952       81.45865       64.99388
H         54.98839       82.28483       67.74024
H         56.80257       80.65497       67.75450
H         58.68546       80.99136       66.74803
H         57.78036       83.47299       68.57598
H         56.71899       82.37886       69.55269
H         58.41243       81.89685       69.18163
N         56.56013       84.15138       65.40652
C         56.63952       85.51980       64.91054
C         56.05986       85.63835       63.50802
O         55.75884       84.63394       62.87834
C         58.10623       85.99625       64.96356
C         59.07212       85.12249       64.12860
C         60.54157       85.55160       64.23689
C         61.08769       85.43138       65.67142
N         62.51934       85.71774       65.71424
H         57.02818       83.41437       64.86472
H         56.04029       86.19391       65.56023
H         58.40215       85.96267       66.03089
H         58.17542       87.05044       64.61914
H         58.76995       85.16579       63.05953
H         59.02924       84.06406       64.45512
H         60.66361       86.59175       63.86635
H         61.13117       84.87510       63.57908
H         60.91390       84.39959       66.05202
H         60.56487       86.14595       66.34111
H         62.70404       86.68302       65.35739
H         62.84863       85.65154       66.70461
H         63.04070       85.01815       65.13760
N         55.87490       86.87683       62.96642
C         55.41031       87.11689       61.60316
C         54.06817       86.43775       61.30731
O         54.05511       85.61713       60.40024
C         55.42301       88.63688       61.30830
C         55.03534       88.98091       59.86478
C         55.12238       90.46456       59.63888
O         54.13132       91.09618       59.30906
O         56.29690       91.10552       59.79696
H         56.10773       87.69332       63.55235
H         56.16286       86.66871       60.91440
H         56.45647       89.00660       61.49187
H         54.76366       89.18500       62.00379
H         53.99758       88.63647       59.66362
H         55.72362       88.47107       59.15749
N         52.90158       86.65908       61.98224
C         52.73042       87.56844       63.09185
H         51.68729       87.49569       63.46848
H         53.41696       87.30357       63.92069
H         52.87388       88.61437       62.76989
H         52.06966       86.11930       61.69379
Ca        41.30094       82.70312       56.66590
O         41.48587       85.46184       53.82908
H         40.83287       85.78321       53.15734
H         41.98369       84.74205       53.36565

Ca 1.0



