%chk=apoCaM-CA-Ng.loop4.water3.frame231.chk
%nprocshared=20
%mem=10GB
%nosave
#b3lyp/svp scf=(tight,noincore,xqc) Test 
#IOP(5/87=12) Density=Current Pop=(MK,readradii) iop(6/33=2) iop(6/42=6)

apoCaM-CA-Ng.loop4.water3.frame231 

   -3  1 
C         23.54567       46.26719       84.89031
C         23.60805       47.49060       85.75137
O         24.20453       47.40734       86.80862
H         24.58002       45.94453       84.64272
H         23.04165       45.45071       85.44961
H         22.99350       46.45647       83.94819
N         23.04794       48.67126       85.35523
C         23.11078       49.90709       86.13222
C         24.53545       50.31773       86.43106
O         24.91136       50.38611       87.58565
C         22.14074       49.94849       87.34829
C         21.96945       48.76238       88.27991
O         22.93884       48.20234       89.03863
O         20.84590       48.29586       88.38763
H         22.59587       48.71405       84.42946
H         22.73297       50.73947       85.49366
H         21.13067       50.11373       86.90570
H         22.35626       50.86214       87.94391
N         25.36192       50.64766       85.39503
C         26.73289       51.15524       85.48384
C         26.78290       52.60152       85.99122
O         27.16469       53.45842       85.20466
C         27.69312       50.18382       86.22505
C         29.16449       50.68319       86.21645
C         27.60114       48.76646       85.62715
C         29.79298       50.86255       84.82709
H         24.98379       50.53681       84.44063
H         27.08959       51.20206       84.43072
H         27.38703       50.11298       87.28974
H         29.78345       49.95474       86.78126
H         29.22519       51.65609       86.74883
H         27.86014       48.76457       84.54785
H         28.28371       48.07508       86.16495
H         26.57234       48.36495       85.72689
H         29.81436       49.90578       84.26682
H         29.25710       51.62690       84.23018
H         30.83812       51.21581       84.94083
N         26.40391       52.97421       87.25117
C         26.38732       54.37053       87.67396
C         27.80406       54.93684       87.78776
O         28.08344       55.87088       87.04921
C         25.52652       54.58372       88.94372
C         24.08395       54.22198       88.70222
O         23.44060       54.79444       87.83686
O         23.48654       53.28060       89.45618
H         26.07687       52.27382       87.92010
H         25.85906       54.95938       86.88759
H         25.56199       55.65709       89.23120
H         25.87836       53.98120       89.79479
N         28.77864       54.47416       88.63172
C         28.61839       53.37708       89.57793
C         29.87665       53.08061       90.38683
O         30.88280       53.74374       90.17903
H         29.68980       54.95367       88.57689
H         28.32746       52.46820       89.01871
H         27.85587       53.67108       90.29949
N         29.94979       52.09627       91.33816
C         28.91129       51.16020       91.75311
C         28.46057       50.33004       90.56920
O         27.30264       50.41441       90.18471
C         27.76315       51.86328       92.52654
C         26.83322       50.90588       93.23492
O         25.81841       51.39749       93.97084
O         26.99168       49.69661       93.16993
H         30.85640       51.96824       91.80487
H         29.36417       50.47106       92.50083
H         27.14401       52.49227       91.86709
H         28.21378       52.50902       93.31026
N         29.30246       49.47912       89.92049
C         30.66114       49.16578       90.32665
C         31.68102       50.10213       89.74571
O         31.52868       50.51228       88.60484
H         28.92692       48.94585       89.12674
H         30.91871       48.19607       89.85616
H         30.75851       48.97440       91.41608
N         32.83529       50.36314       90.42371
C         33.94578       51.09245       89.81394
C         34.52839       50.33968       88.60804
O         35.34315       50.93088       87.91092
C         35.08887       51.35260       90.82842
C         34.79858       52.42252       91.90047
C         33.69756       52.09980       92.87377
N         33.75998       51.00257       93.66299
O         32.75156       52.86467       92.97753
H         32.94006       49.98359       91.37500
H         33.56583       52.07276       89.44921
H         35.96077       51.75576       90.26741
H         35.41160       50.39484       91.29246
H         34.56798       53.38204       91.38613
H         35.72703       52.57282       92.49184
H         34.55874       50.35515       93.60577
H         33.00507       50.80137       94.33590
N         34.17520       49.05531       88.29268
C         34.67508       48.33662       87.12284
C         35.47274       47.09346       87.50053
O         35.86532       46.38039       86.59019
C         33.51268       47.98823       86.14271
C         32.93619       49.26239       85.51501
C         32.38948       47.15661       86.78511
H         33.52373       48.54409       88.90329
H         35.38851       48.96337       86.54248
H         33.93488       47.39459       85.30124
H         32.48821       49.91996       86.28525
H         33.73735       49.82592       84.98972
H         32.16069       48.99973       84.76493
H         32.79320       46.21548       87.21246
H         31.86998       47.72647       87.58191
H         31.63149       46.89001       86.01722
N         35.82246       46.80551       88.79387
C         36.67617       45.66283       89.12889
C         36.06281       44.72908       90.16534
O         36.63711       43.66326       90.36547
C         38.03065       46.18444       89.65502
C         38.72567       47.08322       88.66032
N         39.11741       46.61385       87.45297
O         38.94319       48.24972       88.95369
H         35.55869       47.45247       89.54751
H         36.86357       45.04598       88.22477
H         38.70736       45.33545       89.89461
H         37.85000       46.75610       90.59233
H         38.95371       45.63191       87.18885
H         39.59272       47.23426       86.78054
N         34.97652       45.06299       90.92231
C         34.50828       44.24074       92.03671
C         32.99031       44.23270       92.14042
O         32.35959       45.23758       91.83464
C         35.05332       44.83707       93.35071
C         36.56235       44.84932       93.41582
C         37.28857       43.64934       93.51979
C         37.25677       46.06938       93.39114
C         38.68551       43.67486       93.60477
C         38.65176       46.09175       93.46429
C         39.37128       44.89839       93.57646
O         40.71646       44.94121       93.66037
H         34.56042       45.99981       90.81932
H         34.88086       43.19428       91.95481
H         34.68512       44.26169       94.22607
H         34.66118       45.87449       93.44020
H         36.77455       42.69649       93.54980
H         36.71899       47.00519       93.30731
H         39.23362       42.74515       93.69619
H         39.17310       47.04007       93.43799
H         41.25362       44.14155       93.75279
N         32.35920       43.17414       92.72848
C         30.95099       43.14078       93.13340
C         29.93464       43.20067       91.99513
O         28.75140       43.13563       92.30053
C         30.65641       44.22946       94.19605
C         31.52914       44.05393       95.44948
C         31.18254       45.06551       96.50273
O         30.73615       44.65805       97.70647
O         31.31436       46.25846       96.27995
H         32.93319       42.35845       92.99656
H         30.77012       42.16060       93.63001
H         29.59365       44.14400       94.51326
H         30.80139       45.24457       93.76984
H         32.60081       44.16480       95.19345
H         31.37148       43.03423       95.86398
N         30.28651       43.26930       90.67911
C         29.30887       43.25573       89.59036
C         29.46542       42.00745       88.72834
O         28.69193       41.85684       87.79138
C         29.49346       44.50971       88.71089
C         29.25920       45.84905       89.42713
C         27.80850       46.17856       89.67988
O         27.28563       47.26620       89.07274
O         27.12205       45.50144       90.42767
H         31.28118       43.30058       90.41805
H         28.26897       43.23611       89.97998
H         28.82641       44.47437       87.82085
H         30.54370       44.49787       88.34354
H         29.64300       46.63146       88.73985
H         29.84497       45.90314       90.36917
N         30.42248       41.06340       88.96848
C         30.56361       39.88978       88.13456
H         31.40629       39.26464       88.49965
H         29.63200       39.28625       88.16668
H         30.77577       40.19282       87.08704
H         31.08024       41.16100       89.75395
Ca        25.19976       48.13326       89.19615
O         23.71392       45.50431       89.54118
H         24.41577       44.82536       89.70057
H         23.15946       45.49109       90.36144
O         24.25718       47.92481       92.19091
H         24.15869       47.84290       93.17245
H         25.23097       48.03034       92.04733
O         24.16760       50.73323       90.91139
H         24.63367       50.96220       90.06998
H         24.50729       51.39539       91.56297

Ca 1.0



