%chk=apoCaM-CA-Ng.loop3.water6.frame468.chk
%nprocshared=20
%mem=10GB
%nosave
#b3lyp/svp scf=(tight,noincore,xqc) Test 
#IOP(5/87=12) Density=Current Pop=(MK,readradii) iop(6/33=2) iop(6/42=6)

apoCaM-CA-Ng.loop3.water6.frame468 

   0  1 
C         52.24536       37.11237      110.86805
C         51.76799       36.17885      111.94236
O         50.91918       36.56638      112.73125
H         53.34160       37.25915      110.95085
H         52.01010       36.67760      109.87271
H         51.74096       38.10006      110.94594
N         52.26255       34.90766      112.00797
C         51.80417       33.88301      112.94476
C         52.16040       34.17774      114.40779
O         51.64080       33.49193      115.27670
C         50.29491       33.60481      112.70959
C         49.80324       32.38222      113.43569
O         48.79473       32.48264      114.32228
O         50.30676       31.29178      113.21584
H         52.97094       34.62784      111.31220
H         52.33362       32.93799      112.69227
H         50.13271       33.42498      111.62390
H         49.67942       34.47784      113.00898
N         53.08870       35.11841      114.76164
C         53.46485       35.38655      116.15332
C         53.09295       36.80695      116.57745
O         53.40345       37.18552      117.69865
C         54.96803       35.09915      116.38006
C         55.31678       33.61958      116.12540
C         56.73217       33.27796      116.61964
C         57.04410       31.78482      116.42761
N         58.34161       31.43733      117.00897
H         53.56690       35.66181      114.02742
H         52.91201       34.72121      116.85184
H         55.19078       35.31784      117.44807
H         55.60538       35.75756      115.74989
H         55.21663       33.38779      115.04228
H         54.60293       32.98220      116.69192
H         56.79050       33.51073      117.70588
H         57.48859       33.89134      116.08329
H         57.04331       31.53952      115.34239
H         56.25797       31.17376      116.92504
H         58.33523       31.62914      118.03769
H         58.52109       30.41733      116.86294
H         59.10508       31.98665      116.55258
N         52.36749       37.62481      115.76173
C         51.90401       38.96194      116.12701
C         51.02547       38.88853      117.37208
O         50.10521       38.08368      117.39656
C         51.13775       39.55029      114.92517
C         50.75984       40.98735      115.11032
O         51.23656       41.92914      114.28218
O         49.97735       41.31511      115.97830
H         52.09658       37.27345      114.83565
H         52.78709       39.61198      116.31498
H         50.22683       38.94445      114.71840
H         51.79581       39.49260      114.03027
N         51.28322       39.67167      118.46222
C         50.59579       39.50789      119.73804
C         49.09384       39.73643      119.72597
O         48.46277       39.33332      120.69283
H         52.05383       40.35537      118.41645
H         51.04376       40.17582      120.50611
H         50.77593       38.46213      120.06867
N         48.44657       40.37791      118.71011
C         46.99452       40.51529      118.64601
C         46.47014       39.92084      117.34172
O         45.67463       40.55807      116.66295
C         46.57889       41.99877      118.79056
C         46.97647       42.60191      120.11384
N         46.46836       42.12446      121.27338
O         47.74440       43.55150      120.13854
H         48.99712       40.78676      117.95588
H         46.51714       39.93819      119.46650
H         45.47432       42.09398      118.70162
H         47.04221       42.57618      117.96379
H         45.80229       41.33889      121.27521
H         46.73130       42.55271      122.17343
N         46.85489       38.67437      116.94009
C         46.26242       37.99070      115.79702
C         46.37935       38.69448      114.45360
O         45.70738       38.25100      113.53390
H         47.54091       38.15605      117.50768
H         45.17931       37.88041      116.01699
H         46.69138       36.96922      115.70147
N         47.18693       39.77376      114.24551
C         47.20978       40.53105      112.99486
C         46.94507       41.98724      113.31237
O         47.66773       42.57026      114.10693
C         48.54917       40.32864      112.26464
C         48.69978       41.19377      111.02835
C         47.76291       41.14791      109.97924
C         49.80134       42.06078      110.91805
C         47.92538       41.95954      108.85010
C         49.96603       42.86209      109.78644
C         49.02718       42.81554      108.74810
O         49.17430       43.58609      107.65132
H         47.80937       40.08631      115.00393
H         46.42135       40.16911      112.30083
H         48.62745       39.25931      111.97088
H         49.37689       40.54328      112.95829
H         46.90387       40.49235      110.03258
H         50.54173       42.11398      111.70468
H         47.19475       41.92246      108.05170
H         50.82495       43.51795      109.71895
H         49.92569       44.18688      107.54227
N         45.91563       42.64081      112.70861
C         45.54585       44.01111      113.03421
C         44.79195       44.00341      114.34733
O         45.12502       44.78152      115.22968
C         44.71808       44.66017      111.88671
C         45.45075       44.58032      110.51406
C         44.37216       46.12769      112.21924
C         46.85668       45.19185      110.48366
H         45.35069       42.13381      112.01087
H         46.45799       44.63728      113.14083
H         43.75710       44.11106      111.77330
H         44.82708       45.08506      109.74519
H         45.54782       43.51934      110.20341
H         45.28708       46.73737      112.37085
H         43.77666       46.57816      111.39674
H         43.76482       46.19504      113.14453
H         47.27350       45.10851      109.45902
H         46.84468       46.26444      110.76317
H         47.53754       44.63491      111.15821
N         43.78955       43.10292      114.56539
C         43.07957       43.02895      115.83520
C         42.17492       44.22811      116.04751
O         41.78929       44.46637      117.18242
C         42.24798       41.73840      115.92832
O         41.26858       41.71733      114.92485
H         43.57233       42.41442      113.82811
H         43.84035       42.99039      116.64781
H         41.76121       41.68229      116.92808
H         42.92938       40.86620      115.80655
H         40.80660       40.84310      115.00815
N         41.73886       44.98135      114.99130
C         40.79546       46.08768      115.10271
C         41.35744       47.29037      115.84189
O         40.59354       48.22494      116.05611
C         39.46042       45.60655      115.69806
H         42.03880       44.73350      114.03821
H         40.55789       46.44602      114.07621
H         38.71107       46.42623      115.67025
H         39.06445       44.76353      115.09211
H         39.55810       45.27552      116.75044
N         42.67730       47.39646      116.18899
C         43.22393       48.58858      116.82582
C         44.15010       49.33265      115.88671
O         44.57915       48.78655      114.87731
C         43.94468       48.22539      118.12382
H         43.33616       46.64204      115.94725
H         42.40017       49.29161      117.07855
H         44.79631       47.54264      117.91318
H         44.33510       49.13976      118.61998
H         43.24204       47.71919      118.81860
N         44.40304       50.64967      116.12529
C         45.16194       51.53585      115.25191
C         44.62477       51.47382      113.82831
O         45.39075       51.26227      112.89752
C         46.68020       51.25774      115.32483
C         47.20633       51.31118      116.76669
C         48.70417       51.20998      116.80109
O         49.43132       52.20540      117.34438
O         49.26997       50.22987      116.34345
H         43.95947       51.08522      116.94999
H         45.00854       52.57398      115.62425
H         47.19688       52.04134      114.72529
H         46.91815       50.26372      114.88733
H         46.77129       50.47431      117.35522
H         46.90417       52.27060      117.23964
N         43.28842       51.61175      113.59997
C         42.69097       51.51515      112.28253
H         42.12112       52.44190      112.06681
H         43.44668       51.37322      111.48124
H         41.99548       50.64950      112.25894
H         42.65417       51.75886      114.39927
Ca        50.41963       43.99509      114.62750
O         48.90033       45.85037      113.02800
H         49.29868       46.68667      113.37536
H         49.56133       45.51063      112.37302
O         50.56956       46.39936      116.38121
H         51.27529       46.37679      117.07515
H         50.65957       47.29021      115.95943
O         52.74211       45.43796      113.62264
H         52.02405       45.70572      112.99558
H         53.01825       44.53898      113.31223
O         47.86037       44.90403      116.28681
H         47.26686       45.44740      116.86312
H         47.39277       44.03685      116.20016
O         52.85512       43.47096      116.43073
H         53.59661       43.99124      116.82937
H         52.95588       42.56032      116.80644
O         50.35985       43.70922      117.93608
H         50.83480       43.59934      118.79744
H         49.40313       43.60968      118.16391

Ca 1.0



