%chk=apoCaM-CA-Ng.loop3.water5.frame454.chk
%nprocshared=20
%mem=10GB
%nosave
#b3lyp/svp scf=(tight,noincore,xqc) Test 
#IOP(5/87=12) Density=Current Pop=(MK,readradii) iop(6/33=2) iop(6/42=6)

apoCaM-CA-Ng.loop3.water5.frame454 

   0  1 
C         86.40564       54.96340       90.98189
C         86.28335       53.51221       90.62239
O         85.49075       52.81087       91.23309
H         85.70796       55.22713       91.80552
H         87.44410       55.17954       91.31090
H         86.16713       55.58936       90.09651
N         87.05551       52.99431       89.62527
C         87.03708       51.59775       89.20028
C         87.51576       50.70641       90.33942
O         86.80870       49.81542       90.79008
C         85.65699       51.22287       88.61512
C         85.63403       49.87561       87.93854
O         84.60214       49.48670       87.41650
O         86.73570       49.10074       87.87755
H         87.70916       53.62785       89.13848
H         87.77411       51.49428       88.37115
H         85.39114       51.98056       87.84553
H         84.88037       51.24260       89.40703
N         88.76065       50.92751       90.84076
C         89.40192       50.16043       91.91327
C         88.71412       50.25703       93.27658
O         89.18484       49.60375       94.19791
C         90.88963       50.58052       91.99807
C         91.09910       52.05692       92.40291
C         92.48354       52.54441       91.95653
C         92.65835       54.04638       92.21697
N         93.89434       54.53872       91.60904
H         89.30549       51.66284       90.36688
H         89.39036       49.08924       91.61183
H         91.29639       50.41870       90.97471
H         91.46812       49.92306       92.68397
H         90.93993       52.18432       93.49586
H         90.36688       52.70852       91.88799
H         92.56024       52.38297       90.85781
H         93.28951       51.96521       92.45685
H         92.66712       54.23816       93.31218
H         91.80402       54.60333       91.76968
H         93.98870       55.56150       91.80361
H         94.72097       54.03362       92.00130
H         93.85782       54.40160       90.57166
N         87.59216       51.00882       93.48543
C         86.87301       51.05468       94.76122
C         86.43918       49.64672       95.17563
O         86.27657       48.79028       94.31716
C         85.66423       52.01871       94.61100
C         84.85367       52.26635       95.85525
O         84.69636       53.50736       96.34181
O         84.25722       51.35953       96.39985
H         87.22062       51.56746       92.70910
H         87.56756       51.45973       95.52998
H         84.98387       51.62155       93.82572
H         86.04793       53.00287       94.26225
N         86.31399       49.31850       96.49484
C         85.99942       47.97287       96.96776
C         84.58789       47.49437       96.66216
O         84.26404       46.37859       97.04205
H         86.51042       50.04128       97.20310
H         86.10406       47.95748       98.07505
H         86.73887       47.25877       96.54709
N         83.68345       48.28784       96.02922
C         82.29510       47.94182       95.77510
C         81.95337       48.10353       94.30059
O         80.78346       47.96921       93.96384
C         81.40789       48.93064       96.56053
C         81.60702       48.87622       98.05166
N         81.29820       47.76145       98.75203
O         82.02829       49.86191       98.63811
H         83.96395       49.22112       95.73414
H         82.06027       46.90283       96.09398
H         80.34562       48.71908       96.35039
H         81.62797       49.95905       96.20433
H         80.92162       46.92813       98.27803
H         81.41974       47.73892       99.77537
N         82.88765       48.44766       93.36353
C         82.50311       48.83461       92.02101
C         81.76601       50.16454       92.03222
O         81.12907       50.48118       91.03882
H         83.88641       48.49334       93.59893
H         81.87340       48.03086       91.58175
H         83.40183       48.95531       91.37723
N         81.87242       51.02807       93.09149
C         81.21450       52.32623       93.15588
C         80.47079       52.46815       94.47465
O         81.08007       52.33385       95.52650
C         82.26803       53.44090       92.99588
C         81.66443       54.82844       93.06449
C         80.63638       55.21364       92.18389
C         82.13132       55.75460       94.01300
C         80.08128       56.49393       92.25970
C         81.58123       57.03842       94.07942
C         80.55187       57.41111       93.20348
O         80.00762       58.64342       93.26007
H         82.49571       50.78962       93.87680
H         80.49897       52.43376       92.31441
H         82.75731       53.32049       92.00500
H         83.05253       53.32621       93.77424
H         80.25551       54.52566       91.44102
H         82.92548       55.48741       94.69893
H         79.28361       56.77316       91.58263
H         81.95496       57.74174       94.81270
H         80.30266       59.30778       93.89894
N         79.15129       52.80537       94.48477
C         78.38687       52.99722       95.71457
C         78.11603       51.64432       96.35491
O         78.44999       51.46439       97.51712
C         77.07378       53.79365       95.43954
C         77.34131       55.16668       94.74962
C         76.26967       54.02405       96.73697
C         78.22074       56.14107       95.54687
H         78.68718       52.97080       93.57982
H         78.97583       53.62046       96.42282
H         76.43763       53.19630       94.74910
H         76.36555       55.66217       94.55493
H         77.82085       55.01303       93.76167
H         75.99675       53.07526       97.22511
H         76.85045       54.60281       97.48222
H         75.32691       54.56653       96.51016
H         79.23884       55.72972       95.70241
H         78.32323       57.08841       94.97980
H         77.77026       56.39304       96.52729
N         77.54993       50.62733       95.63959
C         77.33493       49.29785       96.21123
C         76.18296       49.24354       97.20026
O         76.06673       48.24074       97.89036
C         77.13198       48.25326       95.10471
O         75.98191       48.54992       94.36053
H         77.35055       50.78501       94.63960
H         78.25228       49.01322       96.76064
H         77.03504       47.24036       95.55518
H         78.02997       48.26921       94.44553
H         76.03374       47.99474       93.53967
N         75.29122       50.26853       97.32474
C         74.18215       50.28476       98.27181
C         74.67296       50.16799       99.71082
O         73.97546       49.58508      100.53060
C         73.16068       49.18833       97.91903
H         75.38497       51.08547       96.71091
H         73.65969       51.26208       98.16861
H         72.82588       49.30480       96.86675
H         73.59688       48.17463       98.03855
H         72.27007       49.25929       98.57818
N         75.88281       50.68141      100.08382
C         76.44825       50.50976      101.41653
C         76.67094       51.85482      102.07293
O         77.37718       52.68667      101.51985
C         77.76207       49.73266      101.31899
H         76.45282       51.18248       99.38528
H         75.77026       49.90490      102.05718
H         77.57429       48.73649      100.86319
H         78.50281       50.27650      100.69486
H         78.18699       49.57749      102.33428
N         76.08141       52.12722      103.27298
C         76.19134       53.39055      103.99217
C         75.59672       54.51337      103.16302
O         76.26821       55.50048      102.89265
C         77.64192       53.68709      104.44656
C         78.22049       52.57248      105.32902
C         79.57775       52.95375      105.84957
O         79.78789       53.04626      107.17691
O         80.49540       53.18034      105.07676
H         75.49474       51.39944      103.70900
H         75.57406       53.31199      104.91553
H         77.62772       54.62989      105.03860
H         78.30603       53.84192      103.56946
H         78.30709       51.63061      104.74551
H         77.54280       52.39437      106.19189
N         74.31158       54.41078      102.72357
C         73.65230       55.42873      101.93175
H         72.74329       55.77518      102.46611
H         74.30344       56.30793      101.74306
H         73.35365       54.99633      100.95417
H         73.76872       53.56513      102.95586
Ca        83.21220       53.61620       98.04178
O         84.84899       54.34758      100.34074
H         84.35145       55.19987      100.25849
H         85.58595       54.42599       99.68387
O         85.09370       51.31510       99.24300
H         85.03576       50.51851       99.82769
H         86.05500       51.55207       99.23672
O         82.61842       51.99565      101.11217
H         83.39111       52.08765      101.72432
H         81.85828       52.38547      101.61252
O         81.47191       55.97363       97.61335
H         81.08164       55.65888       98.46722
H         82.42137       56.15624       97.82818
O         80.24427       53.08530       99.14795
H         80.55267       52.15736       98.99395
H         79.90037       53.08095      100.07600

Ca 1.0



