%chk=apoCaM-CA-Ng.loop4.water4.frame316.chk
%nprocshared=20
%mem=10GB
%nosave
#b3lyp/svp scf=(tight,noincore,xqc) Test 
#IOP(5/87=12) Density=Current Pop=(MK,readradii) iop(6/33=2) iop(6/42=6)

apoCaM-CA-Ng.loop4.water4.frame316 

   -3  1 
C         61.06439       81.66015       33.87376
C         61.70261       80.31258       33.98597
O         62.63261       80.16962       34.76360
H         59.99748       81.58628       34.16988
H         61.57017       82.38653       34.54733
H         61.13972       82.02390       32.82913
N         61.22479       79.25859       33.26142
C         61.75654       77.90505       33.35937
C         61.70228       77.41552       34.78432
O         62.74047       77.13287       35.33905
C         63.12356       77.72509       32.62664
C         64.21507       78.77255       32.75545
O         64.90152       79.04659       33.88683
O         64.53672       79.38172       31.74696
H         60.40541       79.40964       32.65408
H         61.07960       77.21060       32.81106
H         62.86156       77.71683       31.54402
H         63.53736       76.71605       32.84502
N         60.49326       77.28310       35.41517
C         60.24370       76.76912       36.76900
C         60.54029       75.26942       36.85741
O         59.60049       74.50179       37.01450
C         60.94568       77.61785       37.86759
C         60.63519       77.13124       39.31156
C         60.60167       79.11101       37.71768
C         59.17585       77.26552       39.75775
H         59.65671       77.56771       34.88222
H         59.14794       76.87404       36.93509
H         62.03796       77.52098       37.72792
H         61.25960       77.71717       40.01854
H         60.92425       76.06718       39.41942
H         60.92899       79.49264       36.73069
H         59.50846       79.28345       37.79854
H         61.12170       79.70386       38.49850
H         58.50075       76.66314       39.11811
H         59.08063       76.89812       40.80165
H         58.84912       78.32418       39.74690
N         61.80314       74.77114       36.73610
C         62.11508       73.35416       36.70520
C         61.93483       72.72886       38.07400
O         61.17946       71.76902       38.14219
C         63.51548       73.10567       36.10165
C         63.62683       73.59187       34.66847
O         62.68267       74.11856       34.09716
O         64.78441       73.42869       34.00179
H         62.59407       75.40384       36.63713
H         61.42080       72.84785       35.99307
H         63.71807       72.01313       36.09487
H         64.29402       73.60029       36.70899
N         62.50861       73.17916       39.23333
C         63.40482       74.33319       39.39573
C         63.58809       74.69352       40.87675
O         62.95110       74.05180       41.70090
H         62.23692       72.64650       40.07239
H         62.95867       75.21751       38.91935
H         64.37086       74.09612       38.91811
N         64.38774       75.69069       41.37374
C         65.31208       76.61592       40.72063
C         64.62363       77.60676       39.78358
O         64.30030       77.21667       38.67478
C         66.48450       75.86616       40.04539
C         67.65038       76.74726       39.67358
O         68.62049       76.25390       39.12108
O         67.66246       78.05993       39.97477
H         64.36333       75.79418       42.40219
H         65.77080       77.18573       41.55392
H         66.13188       75.35237       39.13297
H         66.87296       75.09872       40.74896
N         64.39828       78.92268       40.10131
C         64.64111       79.52875       41.40429
C         63.67374       78.99772       42.44162
O         62.78220       78.23388       42.09605
H         63.99938       79.53474       39.37409
H         64.47846       80.62733       41.34277
H         65.69809       79.37207       41.70398
N         63.79844       79.34696       43.75464
C         62.91846       78.77837       44.77504
C         61.52694       79.40893       44.78350
O         60.65027       78.86320       45.43885
C         63.58624       78.80142       46.16882
C         63.71269       80.19125       46.81281
C         64.50135       80.09165       48.09630
N         63.93120       80.36059       49.29349
O         65.67576       79.75633       48.05231
H         64.59675       79.93809       44.03216
H         62.81118       77.69650       44.53383
H         64.59457       78.34302       46.06062
H         62.99770       78.16205       46.86357
H         62.69284       80.58032       47.01714
H         64.23007       80.90460       46.13868
H         62.94185       80.62842       49.36180
H         64.47971       80.28376       50.16291
N         61.26633       80.58301       44.13306
C         59.96706       81.26011       44.15610
C         60.00872       82.52380       45.00609
O         58.98752       83.18953       45.10472
C         59.48313       81.60506       42.71412
C         59.19752       80.33984       41.90128
C         60.46172       82.51698       41.94728
H         62.04331       81.06097       43.65633
H         59.19679       80.61378       44.63208
H         58.51730       82.15262       42.80025
H         58.43111       79.72354       42.41779
H         58.79588       80.61705       40.90236
H         60.11895       79.73678       41.76379
H         60.02150       82.79982       40.96841
H         60.66032       83.45208       42.51227
H         61.42644       82.00738       41.74563
N         61.14074       82.91265       45.65666
C         61.24015       84.13207       46.44320
C         62.28875       85.06015       45.85380
O         62.50330       86.11539       46.43730
C         61.60480       83.76226       47.89644
C         60.53572       82.91485       48.54310
N         59.28848       83.40117       48.73990
O         60.80022       81.77922       48.90350
H         61.99016       82.33624       45.59964
H         60.28123       84.69401       46.44946
H         61.73322       84.67982       48.51107
H         62.57323       83.21291       47.89611
H         59.04350       84.36077       48.45769
H         58.56629       82.81725       49.18748
N         62.97468       84.76252       44.70490
C         64.03831       85.61827       44.18960
C         64.27432       85.41381       42.69500
O         63.89472       84.38805       42.14772
C         65.38572       85.21694       44.84669
C         65.40616       85.13475       46.35293
C         65.33370       86.28423       47.15492
C         65.53154       83.87546       46.96821
C         65.39074       86.17073       48.55054
C         65.58049       83.76464       48.35673
C         65.51551       84.90861       49.15400
O         65.58029       84.78140       50.49443
H         62.75453       83.89996       44.18911
H         63.76189       86.68276       44.36526
H         66.20493       85.88912       44.51023
H         65.62836       84.20112       44.45831
H         65.24545       87.26340       46.70142
H         65.59039       82.97335       46.37238
H         65.34366       87.06252       49.16205
H         65.67641       82.78700       48.81149
H         65.55633       85.54534       51.08714
N         65.03100       86.32962       42.02621
C         65.68182       86.18838       40.72168
C         64.82955       85.86596       39.49646
O         65.42056       85.85208       38.42409
C         66.89916       85.22993       40.80323
C         66.55765       83.73467       40.91478
C         67.79188       82.88875       40.81017
O         68.47994       82.92606       39.80210
O         68.13274       82.06447       41.81851
H         65.26870       87.19443       42.53885
H         66.13348       87.18566       40.51112
H         67.55222       85.53076       41.65261
H         67.48884       85.37503       39.87074
H         65.87345       83.43925       40.09263
H         66.07725       83.52097       41.88654
N         63.48955       85.60474       39.52368
C         62.74205       85.26913       38.31110
C         61.74991       86.36309       37.95369
O         61.14385       86.26310       36.89532
C         61.99015       83.92745       38.47870
C         62.84436       82.71862       38.90278
C         63.87013       82.31268       37.88375
O         64.79451       83.05563       37.60038
O         63.79208       81.10118       37.30238
H         62.96756       85.65853       40.40593
H         63.42781       85.18198       37.44139
H         61.46934       83.67453       37.52738
H         61.21533       84.06869       39.26162
H         62.14982       81.86332       39.05047
H         63.34099       82.91490       39.87533
N         61.52267       87.43150       38.77447
C         60.59016       88.49248       38.46266
H         59.79003       88.50987       39.23172
H         61.12819       89.46289       38.47975
H         60.12083       88.36725       37.46515
H         62.00970       87.51486       39.67641
Ca        64.87928       78.43199       36.06020
O         65.80983       81.67437       34.61750
H         64.83392       81.77501       34.48541
H         65.93023       81.71196       35.59816
O         67.74758       78.44899       35.15458
H         68.35293       78.68074       34.40677
H         68.18052       77.67675       35.59723
O         65.76196       75.68272       36.48828
H         66.73785       75.83586       36.43945
H         65.45128       75.74337       35.55036
O         66.88742       80.19613       37.50966
H         66.70150       79.42869       38.10452
H         67.43909       80.81043       38.05462

Ca 1.0



