%chk=apoCaM-CA-Ng.loop3.water5.frame481.chk
%nprocshared=20
%mem=10GB
%nosave
#b3lyp/svp scf=(tight,noincore,xqc) Test 
#IOP(5/87=12) Density=Current Pop=(MK,readradii) iop(6/33=2) iop(6/42=6)

apoCaM-CA-Ng.loop3.water5.frame481 

   0  1 
C         19.21194       53.79418       95.83609
C         18.29824       52.61664       95.66886
O         17.22252       52.76893       95.10850
H         20.17668       53.59403       95.32475
H         18.75820       54.71032       95.40276
H         19.40481       53.96629       96.91519
N         18.67070       51.39807       96.15355
C         17.86526       50.18528       96.05591
C         16.54108       50.37503       96.78395
O         15.47817       50.21363       96.20034
C         17.72891       49.74928       94.57908
C         17.06067       48.40891       94.44408
O         17.60366       47.32104       95.02390
O         16.03180       48.29730       93.79706
H         19.57983       51.32384       96.63651
H         18.41726       49.37513       96.58431
H         18.74547       49.66336       94.13736
H         17.16627       50.51132       93.99931
N         16.56241       50.74507       98.09266
C         15.37669       50.98342       98.90861
C         15.28203       52.44253       99.33651
O         14.41456       52.75283      100.14267
C         15.36802       50.04598      100.13906
C         16.63703       50.14043      101.00067
C         16.47544       49.36566      102.31381
C         17.79320       49.23928      103.09803
N         18.40054       50.53458      103.40898
H         17.48367       50.89855       98.52977
H         14.44352       50.76797       98.34258
H         15.25323       48.99281       99.80107
H         14.47479       50.29333      100.75507
H         16.85040       51.20348      101.24104
H         17.48741       49.71379      100.42778
H         16.12096       48.33419      102.09813
H         15.70678       49.87372      102.93777
H         18.51412       48.62994      102.50924
H         17.58017       48.69620      104.04529
H         18.71782       51.00936      102.53342
H         17.72436       51.14233      103.92461
H         19.24324       50.37544      104.00705
N         16.08850       53.40782       98.80132
C         15.99012       54.81748       99.16621
C         14.56561       55.31625       98.97518
O         13.89797       54.89089       98.04195
C         16.99040       55.64875       98.34013
C         17.01954       57.08221       98.78234
O         17.37258       57.39653      100.04321
O         16.73103       57.96901       98.00043
H         16.77929       53.14644       98.08427
H         16.26635       54.91440      100.24019
H         16.73088       55.57883       97.25999
H         18.01316       55.23792       98.47666
N         14.02604       56.19158       99.86839
C         12.63100       56.59944       99.86364
C         12.15043       57.13770       98.53658
O         11.01010       56.86131       98.19155
H         14.62462       56.56708      100.61998
H         12.46394       57.35718      100.65944
H         12.00468       55.71710      100.12146
N         12.95219       57.89010       97.73010
C         12.51670       58.37296       96.41834
C         13.35941       57.82808       95.26228
O         12.99824       58.09769       94.12501
C         12.39900       59.91518       96.41892
C         13.64861       60.69343       96.74207
N         13.60131       62.04508       96.77937
O         14.69732       60.12219       96.98260
H         13.90255       58.11109       98.05841
H         11.48940       58.00591       96.20635
H         11.63815       60.19346       97.18011
H         12.02521       60.24766       95.42651
H         12.72217       62.54507       96.58216
H         14.44120       62.59495       97.00998
N         14.46066       57.04018       95.45301
C         15.22335       56.43709       94.36342
C         16.62016       57.01302       94.22874
O         17.37413       56.51749       93.40377
H         14.78774       56.83987       96.40629
H         14.71904       56.57404       93.38283
H         15.28770       55.34396       94.55494
N         17.01352       58.09608       94.95590
C         18.31532       58.74913       94.81505
C         18.37637       60.11341       95.59799
O         17.15606       60.53333       96.12605
C         19.45547       57.80850       95.28946
C         20.73964       58.55525       95.59289
C         21.44256       59.26712       94.60558
C         21.20351       58.58834       96.91848
C         22.56834       60.02618       94.95414
C         22.32295       59.34403       97.26319
C         23.00371       60.07664       96.28409
O         24.06777       60.83661       96.61272
H         16.32439       58.50430       95.59254
H         18.44789       58.97057       93.73475
H         19.63142       56.99443       94.55463
H         19.10685       57.32910       96.23018
H         21.10385       59.26062       93.57745
H         20.68007       58.04692       97.69467
H         23.09196       60.59262       94.19455
H         22.64766       59.37089       98.29589
H         24.37590       60.91816       97.52733
N         19.07833       61.17891       94.82898
C         18.51340       62.54840       94.84112
C         17.03507       62.54891       94.47861
O         16.25811       63.12833       95.22501
C         19.31725       63.47277       93.87706
C         20.85044       63.40950       94.11867
C         18.81789       64.92987       93.94865
C         21.31163       63.84335       95.51332
H         19.24080       60.89929       93.83588
H         18.61897       62.96264       95.86625
H         19.15167       63.11525       92.83567
H         21.35807       64.05087       93.36568
H         21.20470       62.37219       93.94697
H         18.93302       65.34606       94.97027
H         19.38323       65.56320       93.23275
H         17.74591       65.00109       93.68005
H         21.04206       64.89970       95.71456
H         20.87693       63.19162       96.29830
H         22.41703       63.75700       95.57334
N         16.55966       61.83080       93.41833
C         15.12762       61.70202       93.17036
C         14.50010       63.00465       92.70801
O         13.28033       63.08594       92.70138
C         14.83906       60.59535       92.14414
O         15.40135       60.92859       90.90284
H         17.22152       61.29401       92.83845
H         14.65235       61.38995       94.12664
H         13.73411       60.47574       92.05073
H         15.27056       59.63421       92.50192
H         14.91432       60.39737       90.22077
N         15.26662       64.04669       92.26493
C         14.73812       65.30011       91.74163
C         14.03895       66.15726       92.78624
O         13.54427       67.21140       92.40695
C         13.85540       65.04591       90.51050
H         16.28934       63.94075       92.23497
H         15.59915       65.90734       91.38172
H         14.42907       64.46517       89.75653
H         12.92995       64.49239       90.76240
H         13.56106       66.01126       90.04707
N         14.02906       65.84145       94.11750
C         13.48074       66.73630       95.13153
C         14.60701       67.32796       95.95182
O         15.74667       66.90358       95.80298
C         12.47653       65.99394       96.01521
H         14.50047       64.98772       94.44819
H         12.95749       67.59008       94.64885
H         12.03949       66.67949       96.77204
H         11.65197       65.58707       95.39257
H         12.97521       65.15313       96.54375
N         14.36894       68.38845       96.77958
C         15.40522       69.08717       97.53854
C         16.46271       69.74435       96.64690
O         17.40052       70.30929       97.19415
C         16.06235       68.14262       98.57771
C         15.07502       67.49254       99.56680
C         14.39839       68.47826      100.48385
O         14.61245       68.41138      101.81194
O         13.63016       69.31813      100.04410
H         13.40350       68.74373       96.86030
H         14.93426       69.92294       98.09506
H         16.82082       68.70455       99.16622
H         16.60061       67.32869       98.05025
H         15.65801       66.78634      100.19696
H         14.30797       66.90246       99.02130
N         16.38342       69.74974       95.28280
C         17.40528       70.35512       94.45687
H         18.37827       69.84710       94.62785
H         17.13641       70.24902       93.38376
H         17.49972       71.43528       94.69532
H         15.58292       69.33010       94.79364
Ca        17.44359       60.69571       98.37625
O         19.77446       59.78890       99.92831
H         19.97294       58.82991       99.78720
H         20.26180       60.26031       99.20706
O         18.80509       63.27296       98.50690
H         17.87471       63.61246       98.51878
H         19.10652       63.33557       99.44749
O         15.21712       62.46864       99.66075
H         14.22941       62.52207       99.70547
H         15.53310       63.10662      100.34837
O         17.35107       60.61873      101.58314
H         16.78303       61.26769      102.06884
H         18.26879       60.80586      101.90363
O         14.66266       59.48944      100.33628
H         14.70809       59.18688      101.27787
H         13.75797       59.88131      100.24464

Ca 1.0



