%chk=apoCaM-CA-Ng.loop4.water3.frame225.chk
%nprocshared=20
%mem=10GB
%nosave
#b3lyp/svp scf=(tight,noincore,xqc) Test 
#IOP(5/87=12) Density=Current Pop=(MK,readradii) iop(6/33=2) iop(6/42=6)

apoCaM-CA-Ng.loop4.water3.frame225 

   -3  1 
C         30.04046       49.76694       91.92589
C         30.81938       50.81955       92.65114
O         31.48189       50.49220       93.62307
H         28.96346       50.03050       91.92156
H         30.41035       49.69128       90.88191
H         30.16875       48.77814       92.41817
N         30.81666       52.10915       92.20258
C         31.60146       53.18448       92.80022
C         33.07190       52.83775       92.79388
O         33.68143       52.80109       93.84077
C         31.01435       53.70515       94.14715
C         30.50246       52.73411       95.19525
O         31.27138       51.87265       95.89673
O         29.31138       52.76580       95.46374
H         30.27804       52.32864       91.35085
H         31.54198       54.07549       92.13354
H         30.12092       54.30124       93.85012
H         31.72147       54.42850       94.60814
N         33.69179       52.60333       91.59848
C         35.10282       52.28317       91.35979
C         36.02100       53.45751       91.69775
O         36.55533       54.04994       90.76969
C         35.53449       50.93466       92.00082
C         36.97567       50.51675       91.59431
C         34.53621       49.81645       91.64700
C         37.19691       50.27873       90.09227
H         33.10019       52.65502       90.75395
H         35.17530       52.14492       90.25861
H         35.52333       51.04203       93.10679
H         37.22303       49.57355       92.12425
H         37.69672       51.29063       91.93257
H         34.85346       48.85732       92.10167
H         33.53047       50.05299       92.04299
H         34.44407       49.68261       90.54980
H         37.02899       51.20162       89.50194
H         38.24706       49.96353       89.92056
H         36.53911       49.47232       89.70852
N         36.23456       53.88039       92.97828
C         36.98687       55.08455       93.29027
C         38.48152       54.88790       93.02160
O         38.99494       55.62331       92.19062
C         36.61712       55.60289       94.70394
C         37.22994       56.94211       95.00094
O         38.03297       57.09643       96.07025
O         36.97667       57.90427       94.29283
H         35.81505       53.37573       93.76196
H         36.61001       55.88933       92.61635
H         36.87335       54.88954       95.50170
H         35.51245       55.72576       94.75241
N         39.27127       53.94089       93.62070
C         38.81048       52.99932       94.63246
C         39.89505       52.06250       95.15470
O         41.00395       52.09998       94.64116
H         40.26022       53.91505       93.32985
H         37.98954       52.38610       94.21385
H         38.47712       53.59229       95.47553
N         39.69083       51.16410       96.17276
C         38.47355       50.96112       96.95754
C         37.30098       50.58646       96.07084
O         36.36648       51.36871       95.96921
C         38.19131       52.15922       97.90927
C         37.07936       51.86047       98.88168
O         36.08521       52.56787       98.91768
O         37.18589       50.82448       99.73515
H         40.48662       50.55711       96.42510
H         38.65210       50.10766       97.64837
H         37.92307       53.08002       97.37068
H         39.10533       52.36891       98.50361
N         37.21741       49.39341       95.41729
C         38.16589       48.29307       95.50419
C         39.39314       48.48203       94.65651
O         39.26624       48.93490       93.53005
H         36.35957       49.21524       94.87421
H         37.67520       47.41295       95.04487
H         38.38270       48.00740       96.55534
N         40.61172       48.04488       95.08702
C         41.78901       48.05919       94.21963
C         41.64258       47.12189       93.01448
O         42.46117       47.23813       92.11293
C         43.06750       47.68102       94.99784
C         43.42261       48.72543       96.07160
C         44.67314       48.37655       96.84460
N         45.13796       49.22849       97.78693
O         45.27301       47.33285       96.62854
H         40.69177       47.66773       96.04374
H         41.91329       49.09521       93.82992
H         43.92542       47.63038       94.29038
H         42.93312       46.67661       95.45824
H         42.58832       48.83518       96.79520
H         43.58614       49.70396       95.56931
H         44.65058       50.11611       97.97853
H         45.99014       49.00439       98.32201
N         40.64999       46.18042       92.91674
C         40.44827       45.34959       91.72339
C         40.63683       43.85614       91.97073
O         40.52939       43.11688       91.00028
C         39.04297       45.60268       91.10103
C         38.90125       47.04330       90.59984
C         37.89292       45.25777       92.06275
H         40.00199       46.05328       93.70508
H         41.20056       45.60928       90.94616
H         38.93851       44.94949       90.20586
H         38.98115       47.76284       91.43211
H         39.69315       47.27105       89.85554
H         37.91414       47.18190       90.10958
H         36.92309       45.38955       91.54059
H         37.96111       44.20097       92.39735
H         37.89251       45.91671       92.95486
N         40.93173       43.32439       93.19360
C         41.13964       41.88898       93.38977
C         40.18594       41.27958       94.40674
O         40.30329       40.08304       94.62407
C         42.59137       41.63982       93.85512
C         43.60966       42.11213       92.84875
N         43.66318       41.57041       91.60892
O         44.40713       42.98260       93.16320
H         41.04933       43.94562       94.00758
H         40.98037       41.32683       92.44424
H         42.76032       40.55224       94.01767
H         42.75355       42.15961       94.82562
H         43.00983       40.82528       91.32728
H         44.36806       41.89086       90.92855
N         39.22498       41.99584       95.06654
C         38.44572       41.42302       96.16932
C         37.21798       42.25711       96.48585
O         37.33985       43.46736       96.60091
C         39.28416       41.39512       97.47405
C         40.49133       40.49694       97.43635
C         40.34227       39.10619       97.29791
C         41.77996       41.04253       97.55314
C         41.46784       38.27778       97.26432
C         42.90271       40.21272       97.51956
C         42.75279       38.82996       97.37426
O         43.84753       38.04415       97.34350
H         39.07189       42.98318       94.81675
H         38.10454       40.39663       95.90974
H         38.64739       41.04685       98.31804
H         39.59481       42.43931       97.70291
H         39.35643       38.66595       97.21179
H         41.91733       42.11095       97.66444
H         41.33993       37.20856       97.15252
H         43.89049       40.64690       97.60653
H         43.78819       37.08322       97.24613
N         36.04167       41.62736       96.80150
C         34.83753       42.26100       97.34164
C         33.94004       42.82931       96.25775
O         32.77417       42.45839       96.21878
C         35.15423       43.27163       98.47142
C         33.90185       43.66028       99.27236
C         34.24976       44.60209      100.38984
O         34.03146       44.24136      101.66920
O         34.72533       45.69963      100.14548
H         36.03971       40.59586       96.79338
H         34.25354       41.44638       97.83064
H         35.61616       44.19269       98.05963
H         35.86995       42.79448       99.17772
H         33.45120       42.74046       99.70623
H         33.15129       44.14527       98.61309
N         34.39801       43.72723       95.34119
C         33.53575       44.33748       94.33139
C         32.93084       43.33273       93.35345
O         32.08470       43.74508       92.57121
C         34.30467       45.40072       93.51054
C         34.99495       46.51350       94.31927
C         34.04346       47.32038       95.15325
O         33.86855       48.50234       94.91018
O         33.41516       46.75932       96.20330
H         35.38125       44.00794       95.38566
H         32.69340       44.82887       94.86262
H         33.60386       45.88391       92.79383
H         35.08876       44.88047       92.92098
H         35.50262       47.17806       93.58825
H         35.78280       46.10417       94.98013
N         33.30842       42.02068       93.31554
C         32.73448       41.05619       92.39784
H         31.95644       41.49995       91.74148
H         33.53665       40.63854       91.75481
H         32.26963       40.23126       92.97704
H         34.04091       41.66995       93.94671
Ca        33.43152       51.21864       95.90327
O         34.40668       53.80599       96.86999
H         33.87182       54.52847       96.45692
H         33.78976       53.38142       97.51827
O         33.98912       49.45443       98.25716
H         34.10114       48.47714       98.36574
H         34.86945       49.83395       98.50245
O         31.09867       48.99478       96.72542
H         31.16361       48.14773       96.21841
H         30.25361       49.40273       96.41036

Ca 1.0



