%chk=apoCaM-CA-Ng.loop2.water4.frame1364.chk
%nprocshared=20
%mem=10GB
%nosave
#b3lyp/svp scf=(tight,noincore,xqc) Test 
#IOP(5/87=12) Density=Current Pop=(MK,readradii) iop(6/33=2) iop(6/42=6)

apoCaM-CA-Ng.loop2.water4.frame1364 

   -2  1 
C        -17.99813       67.27913       60.72072
C        -17.28973       67.39865       59.39183
O        -16.08858       67.62089       59.42993
H        -19.07953       67.08052       60.68842
H        -17.53470       66.45406       61.30035
H        -17.86306       68.22646       61.28326
N        -17.88783       67.28572       58.16738
C        -19.30114       67.02946       57.90366
C        -19.97319       68.21560       57.21084
O        -21.17675       68.13005       57.00649
C        -19.46513       65.70523       57.11325
C        -18.66798       65.70365       55.84478
O        -18.84488       66.70166       54.97287
O        -17.80275       64.86539       55.64773
H        -17.27719       67.40076       57.34228
H        -19.87584       66.89280       58.83044
H        -20.53829       65.54407       56.87267
H        -19.12786       64.85696       57.74826
N        -19.30163       69.36189       56.86107
C        -19.98396       70.53689       56.32343
C        -19.53562       70.86410       54.90411
O        -19.17128       71.99729       54.62748
C        -19.78612       71.71629       57.28655
H        -18.28640       69.43732       57.01510
H        -21.07805       70.35371       56.25776
H        -18.70746       71.97006       57.37363
H        -20.33979       72.61082       56.92886
H        -20.17016       71.45072       58.29465
N        -19.63109       69.90947       53.93472
C        -19.45567       70.15679       52.49411
C        -19.80332       68.90936       51.67488
O        -20.04457       67.85008       52.23704
C        -18.06686       70.75162       52.11665
C        -16.89099       69.89838       52.48664
O        -16.07655       70.30520       53.30053
O        -16.71972       68.68493       51.93589
H        -19.93785       68.97973       54.25071
H        -20.21311       70.91896       52.20880
H        -17.94911       71.73787       52.60806
H        -18.02369       70.95045       51.02587
N        -19.92337       68.98727       50.31909
C        -20.37716       67.86367       49.51119
C        -19.40025       66.71288       49.47944
O        -18.32171       66.80433       50.04917
H        -19.76468       69.89012       49.84942
H        -20.53129       68.20103       48.46457
H        -21.35420       67.50977       49.90766
N        -19.73513       65.57021       48.81461
C        -18.84039       64.41858       48.73619
C        -17.60482       64.74426       47.91161
O        -17.59432       65.74502       47.20685
C        -19.56320       63.20817       48.10284
C        -20.76417       62.78426       48.91399
N        -22.00933       62.81914       48.38218
O        -20.60897       62.40086       50.06386
H        -20.66954       65.51529       48.37938
H        -18.53085       64.15307       49.77012
H        -18.87326       62.33969       48.03348
H        -19.87576       63.47703       47.06888
H        -22.16571       63.14071       47.41572
H        -22.82485       62.52678       48.94114
N        -16.51926       63.91766       47.94926
C        -15.32755       64.11319       47.13359
C        -14.62000       65.43943       47.37591
O        -15.06639       66.20980       48.21244
H        -16.54801       63.09003       48.56412
H        -15.63366       64.06174       46.06804
H        -14.61550       63.28517       47.33859
N        -13.52487       65.82745       46.65451
C        -12.87480       65.01616       45.62580
C        -11.37120       64.85605       45.85021
O        -10.77947       64.09635       45.09415
C        -13.09618       65.65668       44.23302
C        -14.57462       65.71229       43.84488
O        -12.56299       66.95790       44.22004
H        -13.16478       66.78057       46.81726
H        -13.30265       63.99399       45.60541
H        -12.58183       65.01777       43.47430
H        -12.13680       67.09623       43.33446
H        -14.67679       66.15756       42.83256
H        -15.00090       64.68748       43.81744
H        -15.15205       66.33212       44.56257
N        -10.66885       65.55753       46.79549
C         -9.20660       65.52952       46.88801
C         -8.80040       65.06164       48.29009
O         -9.32305       65.62521       49.24208
C         -8.62147       66.94398       46.59457
C         -9.20410       67.60667       45.31498
C         -7.08380       66.88783       46.51622
C         -8.94000       66.86605       43.99970
H        -11.16223       66.19356       47.43692
H         -8.81407       64.86223       46.10596
H         -8.90059       67.61624       47.43658
H         -8.78259       68.63110       45.22092
H        -10.30125       67.72191       45.43761
H         -6.66474       67.90268       46.35133
H         -6.65967       66.48535       47.45384
H         -6.74682       66.22450       45.69224
H         -9.41627       67.42538       43.16691
H         -7.85528       66.79584       43.78538
H         -9.37300       65.84979       44.01262
N         -7.91539       64.04899       48.55042
C         -7.09657       63.35164       47.56295
C         -5.62527       63.31178       47.97216
O         -5.30010       63.49045       49.13749
C         -7.67920       61.95781       47.27784
C         -7.83271       61.11724       48.51659
O         -6.75480       60.76156       49.23992
O         -8.94250       60.74998       48.86997
H         -7.80119       63.76520       49.53680
H         -7.09892       63.89740       46.60681
H         -7.04744       61.42245       46.53763
H         -8.68491       62.10318       46.82226
N         -4.67463       63.16703       47.00533
C         -3.23384       63.21616       47.23535
C         -2.71764       64.58798       46.81827
O         -3.00522       64.98344       45.69561
C         -2.53303       62.15091       46.34944
C         -1.02410       62.29119       46.40734
C         -0.34722       62.96599       45.37274
C         -0.28937       61.80911       47.50287
C          1.03223       63.17177       45.44338
C          1.09643       62.00591       47.56250
C          1.75439       62.69239       46.53737
H         -4.99440       63.12258       46.02497
H         -2.98647       63.00391       48.29272
H         -2.85933       62.32535       45.29974
H         -2.84229       61.11486       46.60686
H         -0.89205       63.36235       44.52479
H         -0.78869       61.29082       48.31128
H          1.53866       63.71241       44.65364
H          1.66076       61.63695       48.40881
H          2.82292       62.85767       46.59132
N         -1.87306       65.34087       47.59568
C         -1.32703       64.97265       48.89709
C         -2.34232       64.90334       50.01230
O         -2.38511       63.90158       50.71172
C         -0.30165       66.07680       49.19696
C          0.15816       66.44951       47.80585
C         -1.17758       66.50029       47.07248
H         -0.77949       64.01510       48.79561
H         -0.80554       66.98163       49.60628
H          0.49759       65.77580       49.90812
H          0.75460       67.38389       47.74590
H          0.76212       65.60497       47.39992
H         -1.74369       67.41460       47.35669
H         -1.01030       66.46960       45.97375
N         -3.16486       65.96051       50.26354
C         -4.04213       66.01667       51.42581
C         -3.17858       66.08958       52.67935
O         -2.40599       67.03153       52.79221
C         -4.94866       67.26619       51.37072
C         -5.95419       67.19165       50.21418
C         -6.80414       68.42764       50.15487
O         -8.13843       68.34020       50.31351
O         -6.29140       69.51646       49.94962
H         -3.13260       66.76810       49.62263
H         -4.70440       65.12653       51.43010
H         -4.31744       68.17795       51.26976
H         -5.52504       67.34242       52.31953
H         -6.60657       66.30248       50.35956
H         -5.42038       67.08588       49.24932
N         -3.21946       65.15807       53.67303
C         -4.08382       63.99918       53.66070
H         -5.14703       64.31632       53.62531
H         -3.85051       63.35370       52.78927
H         -3.92384       63.40352       54.58421
H         -2.59819       65.28197       54.48781
Ca       -17.47607       67.06987       53.25867
O        -14.97112       65.25677       54.14247
H        -14.17416       64.67587       54.05463
H        -14.60904       66.13675       54.41650
O        -17.01647       63.47503       51.94971
H        -16.16625       63.05360       52.23148
H        -17.56297       62.72441       51.60511
O        -19.83128       64.56861       52.77713
H        -20.71054       64.93478       52.50708
H        -20.01045       63.61656       52.98212
O        -15.05598       66.17511       51.18855
H        -14.41581       66.89019       51.43113
H        -15.74743       66.63701       50.65272

Ca 1.0



