%chk=apoCaM-CA-Ng.loop3.water3.frame771.chk
%nprocshared=20
%mem=10GB
%nosave
#b3lyp/svp scf=(tight,noincore,xqc) Test 
#IOP(5/87=12) Density=Current Pop=(MK,readradii) iop(6/33=2) iop(6/42=6)

apoCaM-CA-Ng.loop3.water3.frame771 

   0  1 
C         93.74288      -27.44778       21.05543
C         94.34184      -28.45726       21.99343
O         95.13911      -29.27536       21.55964
H         93.04726      -26.76152       21.58537
H         94.55382      -26.83448       20.60868
H         93.18309      -27.96367       20.24958
N         94.02410      -28.43085       23.31548
C         94.63448      -29.31197       24.30973
C         94.21804      -30.77050       24.08911
O         93.21490      -30.99525       23.42292
C         94.24074      -28.74957       25.70480
C         94.98292      -29.24698       26.89989
O         94.75286      -28.67324       28.09358
O         95.81409      -30.12607       26.81645
H         93.36733      -27.69943       23.63284
H         95.73085      -29.22736       24.19022
H         93.14889      -28.87944       25.86985
H         94.45591      -27.65927       25.69259
N         94.93613      -31.81471       24.61186
C         94.53512      -33.21507       24.49409
C         94.10595      -33.80284       25.83516
O         93.47027      -34.84511       25.81042
C         95.67165      -34.08997       23.92502
C         96.07132      -33.75934       22.48234
C         97.18398      -34.72091       22.02822
C         97.55305      -34.52929       20.55302
N         98.59826      -35.47438       20.15454
H         95.80424      -31.61958       25.12100
H         93.64371      -33.29666       23.83351
H         95.33762      -35.15165       23.93844
H         96.56120      -34.00338       24.58714
H         96.42552      -32.70853       22.40563
H         95.18130      -33.88948       21.82883
H         96.83794      -35.76979       22.16305
H         98.08655      -34.56298       22.65969
H         97.91023      -33.48968       20.38499
H         96.65052      -34.70069       19.92484
H         98.81517      -35.34228       19.14042
H         99.46747      -35.30691       20.71181
H         98.27265      -36.45797       20.30195
N         94.41525      -33.21920       27.03472
C         93.93728      -33.73688       28.31587
C         93.07683      -32.71984       29.06174
O         92.45960      -33.11708       30.04323
C         95.11232      -34.26854       29.16436
C         96.17623      -33.24518       29.45824
O         95.88806      -32.14330       30.17047
O         97.32108      -33.42758       29.07657
H         95.01731      -32.39351       27.05405
H         93.26713      -34.60556       28.13861
H         95.57845      -35.11270       28.60927
H         94.72598      -34.67319       30.12508
N         92.95211      -31.41740       28.66297
C         92.01942      -30.48346       29.27194
C         92.67804      -29.34490       30.02296
O         92.09928      -28.26843       30.04720
H         93.49827      -31.06946       27.87116
H         91.34796      -30.99529       29.99196
H         91.35575      -30.07635       28.47654
N         93.78414      -29.55221       30.80045
C         94.27179      -28.57205       31.77439
C         95.76579      -28.26848       31.66131
O         96.46580      -28.86562       30.85858
C         94.00039      -29.15897       33.17691
C         92.53421      -29.42903       33.39835
N         91.63979      -28.41404       33.40664
O         92.15180      -30.57576       33.57760
H         94.21865      -30.48267       30.79602
H         93.72952      -27.60778       31.66710
H         94.34420      -28.47515       33.97889
H         94.57006      -30.11184       33.27250
H         91.94634      -27.44029       33.26761
H         90.63831      -28.60106       33.56083
N         96.31083      -27.34601       32.51410
C         97.73041      -27.05147       32.66400
C         98.35961      -26.47766       31.42489
O         97.85030      -25.49083       30.91110
H         95.67697      -26.84241       33.15260
H         98.26726      -27.96472       32.99610
H         97.83947      -26.28808       33.46581
N         99.51539      -27.01174       30.92106
C        100.15931      -26.51147       29.70603
C         99.35826      -26.97077       28.47439
O         97.99631      -26.83393       28.67890
C        101.60101      -27.05617       29.58682
C        102.49726      -26.57190       30.70363
C        102.76862      -25.20004       30.84921
C        103.08807      -27.48345       31.59586
C        103.61181      -24.74854       31.86834
C        103.93121      -27.02887       32.61594
C        104.19684      -25.66248       32.75567
O        105.01573      -25.24070       33.74056
H         99.96472      -27.78240       31.43949
H        100.19394      -25.40060       29.74295
H        102.05634      -26.72469       28.62850
H        101.56070      -28.16875       29.57110
H        102.33398      -24.47852       30.16934
H        102.89953      -28.54570       31.50332
H        103.81226      -23.68876       31.96432
H        104.38174      -27.74015       33.29697
H        105.22888      -24.30493       33.86729
N         99.80472      -26.35891       27.21306
C         99.13066      -26.75722       25.94520
C         99.32057      -28.29030       25.65084
O         98.17587      -29.06466       25.90109
C         97.64173      -26.25338       25.81971
C         97.03612      -26.45580       24.40419
C         97.46748      -24.78461       26.25595
C         97.64913      -25.60270       23.28988
H         99.85405      -25.31885       27.30508
H         99.71809      -26.21590       25.17343
H         97.01051      -26.85792       26.50149
H         95.95215      -26.21168       24.44490
H         97.11925      -27.51733       24.11520
H         97.72990      -24.64545       27.32373
H         98.10407      -24.10612       25.65242
H         96.40454      -24.47857       26.15308
H         97.50261      -24.52207       23.48970
H         98.72933      -25.80619       23.16157
H         97.13602      -25.83941       22.33379
N         99.81983      -28.54490       24.28848
C         99.93620      -29.98124       23.95592
C        101.18205      -30.26186       23.13981
O        101.43613      -31.42799       22.86603
C         98.68064      -30.50808       23.21896
O         98.51884      -29.87767       21.97406
H         99.29491      -28.02149       23.55491
H        100.06349      -30.56650       24.89417
H         97.76931      -30.39142       23.84402
H         98.77491      -31.60086       23.04152
H         97.84049      -29.16267       22.09109
N        102.02927      -29.26792       22.73537
C        103.27028      -29.55650       22.02183
C        104.21058      -30.36734       22.91206
O        103.97815      -30.40616       24.11338
C        103.93547      -28.24315       21.60007
H        101.79718      -28.28527       22.94206
H        103.00335      -30.14246       21.11510
H        104.86298      -28.42579       21.03604
H        103.24567      -27.66380       20.94988
H        104.18115      -27.63077       22.49439
N        105.25041      -31.11645       22.44002
C        105.62449      -31.29301       21.04169
C        107.14735      -31.33154       20.92118
O        107.75048      -32.11728       21.63994
C        105.05539      -32.62504       20.54992
H        105.74462      -31.70165       23.13317
H        105.16740      -30.51900       20.40602
H        103.94705      -32.61136       20.63185
H        105.32325      -32.78096       19.48268
H        105.44430      -33.47446       21.15080
N        107.87756      -30.57650       20.04723
C        107.32900      -29.67633       19.04105
C        107.13124      -28.27181       19.60210
O        106.57485      -27.43577       18.90435
C        108.26670      -29.69522       17.80747
C        107.71724      -28.95883       16.57637
C        108.64338      -29.12746       15.40605
O        108.25290      -29.67506       14.38734
O        109.90847      -28.66970       15.47241
H        108.90065      -30.72282       20.04799
H        106.35900      -30.08106       18.68588
H        108.40817      -30.76065       17.51533
H        109.26065      -29.27918       18.08660
H        107.61473      -27.87384       16.77277
H        106.71801      -29.37510       16.32006
N        107.54504      -27.92918       20.85715
C        107.35683      -26.59521       21.38606
H        106.27542      -26.34695       21.42218
H        107.76980      -26.53337       22.41521
H        107.88351      -25.85579       20.74611
H        108.01455      -28.61624       21.46356
Ca        97.76741      -28.93531       28.10179
O        100.41240      -31.11467       28.17028
H        100.85970      -31.14949       27.28772
H        100.66030      -31.96809       28.60721
O         98.85277      -30.82430       30.97653
H         98.37315      -30.76107       31.84050
H         99.49236      -31.56956       31.10234
O         98.29348      -32.22301       26.21239
H         98.72330      -32.77264       25.51019
H         97.53122      -32.77138       26.52312

Ca 1.0



