%chk=apoCaM-CA-Ng.loop4.water5.frame909.chk
%nprocshared=20
%mem=10GB
%nosave
#b3lyp/svp scf=(tight,noincore,xqc) Test 
#IOP(5/87=12) Density=Current Pop=(MK,readradii) iop(6/33=2) iop(6/42=6)

apoCaM-CA-Ng.loop4.water5.frame909 

   -3  1 
C         94.76139        6.03464      142.53007
C         94.54422        5.56410      143.93553
O         94.86460        4.42271      144.23482
H         95.44792        6.90669      142.53092
H         95.20764        5.22732      141.91010
H         93.78913        6.33045      142.08367
N         94.00550        6.40985      144.86419
C         93.72431        6.04072      146.25061
C         94.99582        5.71216      147.04692
O         94.87671        5.27990      148.18513
C         92.67171        4.90173      146.26916
C         92.11510        4.64181      147.64160
O         92.21277        3.53479      148.14631
O         91.48237        5.62516      148.31062
H         93.75726        7.36630      144.56763
H         93.25257        6.91803      146.74726
H         93.09799        3.96362      145.85713
H         91.81493        5.20117      145.62615
N         96.24715        5.91987      146.53176
C         97.47805        5.56151      147.23943
C         97.63078        6.30418      148.57083
O         97.00790        7.34415      148.73336
C         98.74586        5.82263      146.35595
C         98.87452        7.31531      145.93933
C         98.76454        4.87239      145.14481
C        100.24550        7.66246      145.36024
H         96.33146        6.32158      145.59278
H         97.40142        4.48271      147.44250
H         99.64288        5.58462      146.95312
H         98.75135        7.96258      146.83250
H         98.08956        7.59326      145.20568
H         99.70249        4.98011      144.56503
H         98.71867        3.81836      145.49468
H         97.90608        5.05713      144.46719
H        101.03601        7.45335      146.11307
H        100.45786        7.09423      144.43407
H        100.27530        8.74539      145.11589
N         98.47364        5.88278      149.56937
C         99.15495        4.58541      149.60366
C         98.09956        3.50770      149.74729
O         97.96512        2.67287      148.86618
C        100.17315        4.51566      150.76525
C        101.23972        5.56959      150.63016
O        101.96466        5.59333      149.64800
O        101.40355        6.49056      151.59940
H         98.58169        6.50175      150.38880
H         99.73719        4.41837      148.68013
H        100.66550        3.51849      150.76667
H         99.66363        4.65102      151.74214
N         97.27499        3.51278      150.82962
C         96.09800        2.67808      150.97583
C         96.36162        1.19943      150.84360
O         97.24233        0.67670      151.51182
H         97.44255        4.20331      151.57624
H         95.34003        2.99432      150.22726
H         95.66567        2.86695      151.98172
N         95.54782        0.44729      150.04530
C         95.63901       -1.00590      149.96325
C         96.88825       -1.49983      149.24898
O         97.17076       -2.68471      149.35643
C         94.36018       -1.62443      149.33926
C         94.10137       -1.24881      147.89843
O         94.02850       -2.12047      147.04734
O         93.89065        0.03277      147.54228
H         94.76666        0.92588      149.57688
H         95.67886       -1.38063      151.01100
H         93.48004       -1.31177      149.94170
H         94.43447       -2.73249      149.41174
N         97.67665       -0.68261      148.48835
C         98.88145       -1.15904      147.81763
C         98.62076       -2.20486      146.74116
O         99.57917       -2.74856      146.21378
H         97.42919        0.30942      148.38276
H         99.56036       -1.58244      148.58730
H         99.40193       -0.30223      147.33515
N         97.35585       -2.50512      146.33630
C         96.99426       -3.46530      145.30292
C         97.61390       -3.11806      143.95972
O         98.12390       -3.99632      143.27451
C         97.23161       -4.93422      145.72207
C         96.50782       -5.29638      147.02999
C         96.46612       -6.79159      147.22892
N         97.05289       -7.37841      148.29711
O         95.87365       -7.48390      146.41383
H         96.56958       -1.98671      146.74334
H         95.89471       -3.36328      145.15463
H         98.31553       -5.16097      145.82452
H         96.81888       -5.56591      144.90425
H         95.45553       -4.94067      146.99760
H         97.01924       -4.79357      147.87729
H         97.55760       -6.82124      149.00053
H         97.00145       -8.40150      148.41844
N         97.54971       -1.83776      143.50272
C         97.92389       -1.43242      142.14927
C         96.73832       -0.81158      141.40616
O         96.85878       -0.57740      140.21473
C         99.11767       -0.43550      142.16098
C         98.82104        0.83277      142.98446
C        100.39711       -1.10622      142.67397
H         97.18751       -1.12445      144.15210
H         98.22295       -2.32646      141.55697
H         99.31583       -0.12385      141.11103
H         99.66747        1.54677      142.90358
H         97.90864        1.34287      142.61084
H         98.68168        0.59229      144.05954
H        101.24718       -0.39217      142.61930
H        100.27939       -1.44213      143.72520
H        100.64703       -1.98321      142.03937
N         95.58818       -0.46618      142.05822
C         94.45658        0.21170      141.44181
C         93.18626       -0.58488      141.74545
O         93.27214       -1.60577      142.41163
C         94.45645        1.64387      142.03379
C         93.37153        2.55855      141.53494
N         92.49449        3.11538      142.40355
O         93.28828        2.80890      140.34180
H         95.50190       -0.61305      143.06897
H         94.57800        0.28126      140.33974
H         95.42787        2.12073      141.77306
H         94.40615        1.57545      143.14203
H         92.55716        2.92265      143.41414
H         91.75181        3.74569      142.06864
N         91.96328       -0.16176      141.30697
C         90.72090       -0.84552      141.65061
C         89.87624       -1.05650      140.39199
O         90.32026       -0.69368      139.31251
C         89.98413        0.03384      142.69356
C         89.05953       -0.77208      143.57366
C         89.60963       -1.71247      144.46486
C         87.66764       -0.59797      143.53395
C         88.78393       -2.47227      145.29375
C         86.83999       -1.37336      144.35520
C         87.39374       -2.31014      145.23731
O         86.58396       -3.04611      146.02505
H         91.88886        0.70701      140.76783
H         90.94704       -1.82886      142.11346
H         89.47396        0.87506      142.17480
H         90.72127        0.48863      143.39323
H         90.68309       -1.85075      144.52423
H         87.22488        0.11901      142.85410
H         89.22701       -3.18688      145.97685
H         85.76643       -1.24718      144.30543
H         86.93060       -3.70196      146.64743
N         88.61868       -1.58508      140.46603
C         87.71085       -1.67719      139.32862
C         86.48243       -0.79825      139.61109
O         85.43446       -1.33825      139.93774
C         87.32551       -3.15474      139.09366
C         86.48804       -3.32114      137.80874
C         86.05549       -4.74393      137.61556
O         84.74349       -5.04481      137.55971
O         86.88428       -5.63173      137.49649
H         88.26178       -1.90745      141.37220
H         88.20381       -1.35081      138.39418
H         86.76600       -3.54061      139.97444
H         88.25415       -3.75683      138.98322
H         87.08627       -2.99858      136.92857
H         85.57791       -2.68772      137.85103
N         86.50061        0.56826      139.53898
C         87.63742        1.37220      139.09713
C         87.96233        1.11256      137.63234
O         87.21331        0.42217      136.95280
C         87.33376        2.87688      139.26438
C         87.20159        3.30283      140.73338
C         86.91179        4.77257      140.79068
O         85.86756        5.20909      140.33268
O         87.82801        5.62344      141.28760
H         85.62959        1.06015      139.79634
H         88.51967        1.12587      139.71772
H         86.40575        3.12563      138.70106
H         88.16471        3.47713      138.83279
H         88.16506        3.09490      141.24836
H         86.39450        2.74948      141.25801
N         89.09086        1.64638      137.08504
C         89.48783        1.44280      135.70676
H         90.47965        0.94460      135.68289
H         88.76683        0.81284      135.14487
H         89.56706        2.42594      135.19794
H         89.71622        2.21564      137.67495
Ca        87.52340        7.84295      140.99844
O         89.59697        7.62768      143.11143
H         89.10844        6.95711      143.65199
H         89.60341        8.44338      143.67237
O         86.48230       10.57132      141.54147
H         87.07536       11.09499      140.94602
H         85.56552       10.81729      141.26039
O         84.68701        8.22016      139.58477
H         84.25440        8.15064      140.47234
H         83.93756        8.17318      138.93968
O         86.98333        6.51697      138.06737
H         87.85276        6.36345      137.62026
H         86.39435        6.88127      137.36031
O         85.34815        7.42557      143.05066
H         84.90248        6.65092      142.62448
H         84.65144        8.12843      143.07944

Ca 1.0



