%chk=apoCaM-CA-Ng.loop4.water3.frame56.chk
%nprocshared=20
%mem=10GB
%nosave
#b3lyp/svp scf=(tight,noincore,xqc) Test 
#IOP(5/87=12) Density=Current Pop=(MK,readradii) iop(6/33=2) iop(6/42=6)

apoCaM-CA-Ng.loop4.water3.frame56 

   -3  1 
C         44.32710       46.01931       79.45028
C         43.39832       44.88829       79.12540
O         42.39846       45.11936       78.46359
H         45.32823       45.81711       79.01634
H         43.94316       46.97492       79.03161
H         44.41695       46.12512       80.55158
N         43.68681       43.62316       79.54835
C         42.85450       42.44954       79.29108
C         42.66630       42.23070       77.76494
O         41.66657       41.28370       77.53283
C         41.57018       42.44618       80.16003
C         40.58329       43.54470       79.90615
O         40.02641       43.63989       78.82535
O         40.27916       44.41147       80.89171
H         44.56712       43.47482       80.06606
H         43.40520       41.55632       79.66915
H         41.89198       42.50314       81.22435
H         41.04656       41.47408       80.03277
N         43.96194       41.78243       77.21509
C         44.06770       41.43751       75.78148
C         43.57519       40.01222       75.53299
O         44.39760       39.10639       75.53553
C         43.50159       42.52662       74.81650
C         43.67196       42.14261       73.32657
C         44.10698       43.91393       75.09626
C         45.11886       41.92356       72.87912
H         44.68190       42.51083       77.43097
H         45.16430       41.38728       75.59922
H         42.41657       42.63031       74.98949
H         43.22877       42.94802       72.70329
H         43.10235       41.21105       73.12134
H         43.67295       44.66698       74.40459
H         43.86683       44.24723       76.12634
H         45.20929       43.90667       74.97911
H         45.71412       42.85304       72.98800
H         45.60036       41.10171       73.44307
H         45.12702       41.61879       71.81637
N         42.25956       39.73805       75.30928
C         41.70255       38.39347       75.23674
C         41.23765       37.96886       73.83799
O         41.72521       36.92720       73.42052
C         40.58043       38.23132       76.28411
C         40.12080       36.79989       76.39993
O         40.90651       35.92693       76.73610
O         38.83810       36.47652       76.14976
H         41.62490       40.52617       75.25687
H         42.49487       37.66894       75.53737
H         39.72107       38.88495       76.02479
H         40.95955       38.53951       77.28313
N         40.30128       38.58049       73.04065
C         39.65523       39.87796       73.18138
C         38.18142       39.76569       73.46759
O         37.76320       38.70335       73.90640
H         40.04351       38.07860       72.17589
H         39.80969       40.39390       72.21369
H         40.06950       40.49336       73.97766
N         37.29579       40.80043       73.31125
C         37.52584       42.09756       72.65331
C         38.62870       42.97542       73.27606
O         38.53486       43.11210       74.67429
C         36.23884       42.95950       72.69582
C         35.05739       42.32753       72.01542
O         35.08366       42.09437       70.81951
O         33.94278       42.05427       72.71946
H         36.33167       40.60854       73.62600
H         37.77976       41.92408       71.58484
H         36.42834       43.93752       72.19869
H         35.97486       43.16005       73.75768
N         39.97036       42.77342       72.72040
C         40.11864       43.55293       71.46872
C         40.86241       42.77981       70.39920
O         41.93201       42.25940       70.67607
H         40.68731       43.11359       73.40083
H         40.69153       44.47466       71.68220
H         39.14030       43.89169       71.05499
N         40.37575       42.70831       69.12111
C         41.07543       42.01472       68.03575
C         42.42386       42.65363       67.69152
O         43.13985       42.06380       66.89623
C         40.23486       41.97150       66.72375
C         38.99004       41.07031       66.77281
C         37.92148       41.56318       67.70343
N         37.54383       40.81822       68.76574
O         37.38742       42.64332       67.49594
H         39.48345       43.17910       68.91886
H         41.26841       40.96759       68.35916
H         40.86618       41.52834       65.92139
H         39.96510       43.00096       66.39901
H         39.31180       40.04439       67.05379
H         38.54589       41.01411       65.75458
H         37.98398       39.90773       68.96062
H         36.81265       41.15605       69.40130
N         42.82458       43.85576       68.20626
C         44.08533       44.50425       67.83354
C         43.84738       45.80096       67.07767
O         44.82559       46.38456       66.62307
C         44.99255       44.72401       69.07003
C         45.40684       43.37597       69.66192
C         44.33548       45.60324       70.14782
H         42.20592       44.35840       68.85244
H         44.65086       43.86238       67.12246
H         45.92393       45.23250       68.73375
H         44.51182       42.81683       70.00137
H         45.93604       42.76583       68.89867
H         46.09695       43.52972       70.51766
H         44.05410       46.59102       69.72638
H         43.43053       45.11981       70.57003
H         45.04694       45.77491       70.98279
N         42.59468       46.28480       66.84509
C         42.32416       47.42221       65.98384
C         41.59992       48.55452       66.70151
O         42.08208       49.67473       66.61422
C         41.62470       46.94764       64.67927
C         40.35880       46.11476       64.76153
N         39.79348       45.66043       63.61949
O         39.84683       45.82280       65.82803
H         41.78168       45.79084       67.23173
H         43.27699       47.86761       65.61443
H         42.36133       46.31191       64.13997
H         41.42423       47.83808       64.04421
H         40.20869       45.88050       62.70254
H         38.93989       45.08299       63.65170
N         40.42809       48.37099       67.37943
C         39.60525       49.48480       67.84389
C         39.32951       49.44366       69.33552
O         39.01068       48.39257       69.87080
C         38.27029       49.46331       67.07324
C         38.50175       49.55913       65.58139
C         38.09125       48.51979       64.73091
C         39.14351       50.68196       65.02814
C         38.33012       48.59608       63.35533
C         39.38439       50.75388       63.65407
C         38.98088       49.70825       62.81278
O         39.21386       49.76073       61.48605
H         40.04852       47.42571       67.49833
H         40.08532       50.45962       67.61728
H         37.63687       50.32001       67.39006
H         37.72498       48.52515       67.32094
H         37.59557       47.64426       65.13124
H         39.46613       51.50035       65.65862
H         38.01536       47.78493       62.71128
H         39.88764       51.62135       63.24607
H         39.66789       50.50926       61.07325
N         39.30946       50.62163       70.03066
C         38.89342       50.79725       71.42084
C         39.88264       50.27369       72.44710
O         39.60332       50.44467       73.62666
C         37.46833       50.25940       71.68779
C         36.42512       50.85362       70.72810
C         35.02295       50.41848       71.06373
O         34.77299       49.61302       72.11593
O         34.09295       50.80932       70.37726
H         39.52406       51.48920       69.51546
H         38.85166       51.89523       71.60860
H         37.18498       50.54441       72.72596
H         37.44603       49.15177       71.62302
H         36.65391       50.53274       69.69026
H         36.46575       51.96338       70.77612
N         41.08705       49.72638       72.10688
C         42.09520       49.39163       73.10943
C         43.23150       50.40651       73.08987
O         44.10850       50.30160       73.93657
C         42.65583       47.97224       72.88549
C         41.61601       46.84360       72.83632
C         40.84204       46.65928       74.11263
O         40.93431       45.61390       74.73639
O         40.00423       47.61734       74.55003
H         41.34711       49.63282       71.11462
H         41.66442       49.44720       74.13139
H         43.39230       47.73865       73.68674
H         43.19676       47.96242       71.91379
H         42.18017       45.90886       72.62827
H         40.90571       47.01224       71.99927
N         43.28198       51.42308       72.17577
C         44.32741       52.42450       72.15000
H         44.86418       52.36883       71.18017
H         43.86758       53.43052       72.24768
H         45.06234       52.29507       72.97105
H         42.55709       51.51604       71.45155
Ca        40.17200       42.27680       76.06001
O         39.78717       46.76862       78.06861
H         39.06255       47.44300       78.06012
H         40.01390       46.63750       77.11448
O         37.61093       45.43726       76.06093
H         37.49383       45.54112       75.08293
H         36.82606       44.90746       76.35039
O         37.86308       41.64528       77.75317
H         37.40382       41.44220       76.89963
H         37.37755       42.42724       78.11782

Ca 1.0



