%chk=apoCaM-CA-Ng.loop2.water3.frame53.chk
%nprocshared=20
%mem=10GB
%nosave
#b3lyp/svp scf=(tight,noincore,xqc) Test 
#IOP(5/87=12) Density=Current Pop=(MK,readradii) iop(6/33=2) iop(6/42=6)

apoCaM-CA-Ng.loop2.water3.frame53 

   -2  1 
C         60.37691       76.36468       75.13966
C         61.79394       76.85716       75.21265
O         62.67824       76.25692       74.61936
H         59.76453       77.03796       74.50260
H         60.33572       75.32863       74.74497
H         59.94393       76.36074       76.16344
N         62.07061       77.94980       75.97186
C         63.40230       78.51242       76.17782
C         63.80386       78.47009       77.66368
O         64.99096       78.39615       77.94908
C         63.36890       79.95947       75.65532
C         64.69824       80.65292       75.71695
O         64.84153       81.76334       76.46500
O         65.64359       80.23422       75.06817
H         61.26984       78.41038       76.42586
H         64.15891       77.93953       75.59253
H         62.62567       80.53295       76.25105
H         63.03129       79.95610       74.59519
N         62.86218       78.56444       78.65392
C         63.09113       78.57705       80.09630
C         63.56492       77.23256       80.60671
O         64.56706       77.14735       81.30493
C         63.96726       79.76156       80.52018
H         61.87538       78.64939       78.39292
H         62.09871       78.73172       80.57444
H         63.96395       79.85167       81.62761
H         65.01517       79.64372       80.17625
H         63.55003       80.69880       80.09401
N         62.84139       76.12234       80.28085
C         63.14764       74.76191       80.69604
C         64.57327       74.42965       80.28187
O         65.36493       73.97779       81.09930
C         62.84018       74.58465       82.20525
C         62.88654       73.15452       82.69337
O         63.75026       72.84771       83.49959
O         61.98791       72.19955       82.33377
H         62.03102       76.24000       79.65553
H         62.45738       74.09008       80.14307
H         61.83056       74.98221       82.43683
H         63.57784       75.18980       82.77935
N         64.97477       74.68444       79.00013
C         66.31195       74.39421       78.51791
C         66.52253       72.91639       78.59620
O         67.39372       72.46647       79.32649
H         64.30556       75.10272       78.33666
H         67.06326       74.94423       79.12672
H         66.41487       74.72304       77.45976
N         65.70454       72.09493       77.88672
C         65.69938       70.65100       78.04326
C         66.33525       69.94431       76.87121
O         66.30830       68.72211       76.84932
C         64.26297       70.18763       78.35441
C         63.77539       70.82996       79.62837
N         64.45320       70.65270       80.78856
O         62.76659       71.51825       79.61133
H         65.01947       72.51408       77.23598
H         66.34187       70.34585       78.89316
H         64.23973       69.08705       78.49590
H         63.58110       70.44811       77.51362
H         65.30654       70.08003       80.82919
H         64.13681       71.08892       81.65987
N         67.07036       70.63394       75.95244
C         67.91058       69.99558       74.96116
C         67.12565       69.24614       73.91944
O         66.47014       68.26424       74.23775
H         67.14174       71.65948       76.01450
H         68.62627       69.30669       75.46175
H         68.51898       70.78539       74.46906
N         67.20362       69.63001       72.61730
C         66.58047       68.86888       71.54214
C         65.05337       68.89246       71.60653
O         64.44186       68.09106       70.91480
C         67.13561       69.31591       70.15956
C         66.72199       70.73922       69.74363
O         68.53837       69.18036       70.14633
H         67.78982       70.44573       72.39107
H         66.90576       67.81205       71.67636
H         66.74750       68.63432       69.37213
H         68.94460       69.98525       70.56188
H         67.27782       71.04596       68.83345
H         65.65422       70.75725       69.48586
H         66.91350       71.48309       70.54432
N         64.36880       69.78653       72.38607
C         62.90490       69.82120       72.48605
C         62.45537       69.73740       73.94101
O         63.29638       69.72303       74.83031
C         62.33042       71.06006       71.72587
C         62.92588       72.40358       72.23027
C         62.54683       70.85874       70.21633
C         62.38248       73.63325       71.49631
H         64.89880       70.49779       72.91064
H         62.46860       68.91757       72.00887
H         61.23000       71.08894       71.86888
H         64.02987       72.41547       72.11134
H         62.68656       72.51383       73.30955
H         63.61778       70.85702       69.97927
H         62.11347       69.88905       69.88988
H         62.05249       71.64778       69.61739
H         62.80797       74.55349       71.94912
H         62.68605       73.62725       70.42834
H         61.27596       73.67531       71.56708
N         61.12357       69.66527       74.25188
C         60.62466       69.53808       75.62083
C         59.53413       68.44817       75.75276
O         58.98585       68.29689       76.83404
C         60.20806       70.94184       76.11131
C         60.03336       71.06324       77.60719
O         59.78511       72.15654       78.08793
O         60.20934       70.01130       78.43137
H         60.43340       69.75274       73.49149
H         61.46050       69.23418       76.28763
H         59.29831       71.28818       75.57780
H         61.04208       71.63855       75.86446
N         59.22921       67.59072       74.72825
C         58.34825       66.42688       74.88212
C         56.89054       66.80487       75.15047
O         56.30776       67.46104       74.30202
C         58.45175       65.52720       73.62611
C         57.59391       64.29231       73.75414
C         58.14863       63.08414       74.20403
C         56.22208       64.34726       73.44769
C         57.33833       61.95583       74.36231
C         55.41774       63.21800       73.60277
C         55.97396       62.02363       74.06473
H         59.72452       67.68953       73.83163
H         58.75239       65.82736       75.72020
H         59.51918       65.22734       73.52887
H         58.18691       66.07210       72.69283
H         59.20153       63.02126       74.44923
H         55.77267       65.26371       73.08852
H         57.76741       61.03034       74.72189
H         54.36255       63.27275       73.36821
H         55.34707       61.15145       74.19164
N         56.19700       66.36435       76.25732
C         54.78784       66.65759       76.51893
C         54.44605       68.13558       76.66729
O         53.26745       68.45342       76.74672
C         54.51888       65.99138       77.87590
C         55.48223       64.83247       77.87441
C         56.72905       65.44238       77.23998
H         54.20303       66.19170       75.69204
H         54.86989       66.66877       78.68897
H         53.45435       65.73352       78.06786
H         55.65799       64.36106       78.86557
H         55.07131       64.06791       77.17746
H         57.35225       66.01745       77.95774
H         57.29793       64.59833       76.79506
N         55.42195       69.08499       76.74942
C         55.17217       70.51423       76.91372
C         55.36133       71.23865       75.59031
O         54.94491       72.38398       75.49047
C         56.18043       71.08495       77.93436
C         56.02048       70.52063       79.35224
C         57.30361       70.69935       80.13244
O         57.89361       71.90580       80.26789
O         57.85741       69.71739       80.59994
H         56.40458       68.79159       76.68998
H         54.11952       70.68787       77.23288
H         56.12428       72.19457       77.99113
H         57.18848       70.81808       77.54779
H         55.80720       69.42988       79.31438
H         55.15833       71.01821       79.84920
N         55.98120       70.64013       74.53405
C         56.14214       71.23814       73.23035
H         57.22440       71.30804       72.99394
H         55.65614       70.58034       72.47804
H         55.68606       72.24580       73.16926
H         56.38497       69.71073       74.64247
Ca        59.94425       72.02894       81.30409
O         61.39642       69.21550       81.62296
H         62.17588       68.94479       81.07652
H         61.56724       68.81432       82.51165
O         58.70727       71.63280       83.70724
H         58.58398       70.73559       84.10451
H         57.87785       71.79655       83.19089
O         59.50777       74.53422       80.71689
H         59.77809       75.34615       80.22665
H         58.78981       74.81651       81.33664

Ca 1.0



