%chk=apoCaM-CA-Ng.loop1.water6.frame652.chk
%nprocshared=20
%mem=10GB
%nosave
#b3lyp/svp scf=(tight,noincore,xqc) Test 
#IOP(5/87=12) Density=Current Pop=(MK,readradii) iop(6/33=2) iop(6/42=6)

apoCaM-CA-Ng.loop1.water6.frame652 

   0  1 
C         76.99236       28.05647       -2.77501
C         75.66041       28.67066       -3.09363
O         75.61132       29.85690       -3.38351
H         77.44314       28.58054       -1.90640
H         76.89357       26.97945       -2.52180
H         77.66643       28.15272       -3.65119
N         74.52732       27.91586       -3.06657
C         73.20170       28.46046       -3.35971
C         72.78341       29.53677       -2.36386
O         73.45309       29.73731       -1.35986
C         72.14769       27.32877       -3.40488
C         72.16881       26.47480       -2.16379
O         72.37428       25.27494       -2.25326
O         72.00918       27.02887       -0.95014
H         74.62385       26.91207       -2.85077
H         73.23669       28.93603       -4.36468
H         72.36008       26.67680       -4.28023
H         71.13197       27.75586       -3.54716
N         71.67761       30.29542       -2.62263
C         71.19567       31.36061       -1.75337
C         69.73521       31.08306       -1.41957
O         68.88155       31.90670       -1.71868
C         71.40560       32.70790       -2.49041
C         71.11290       33.97209       -1.65374
C         71.27963       35.22484       -2.53640
C         70.97410       36.55276       -1.82162
N         71.91710       36.84278       -0.74256
H         71.16593       30.13540       -3.50435
H         71.78109       31.38879       -0.81172
H         70.77665       32.70763       -3.40817
H         72.47028       32.76495       -2.80834
H         71.81148       34.00008       -0.79164
H         70.07627       33.96244       -1.26172
H         70.56931       35.14131       -3.38786
H         72.30601       35.26505       -2.95704
H         69.93633       36.54088       -1.42208
H         71.04083       37.36826       -2.57608
H         71.81224       36.14368        0.02323
H         72.89720       36.84505       -1.10589
H         71.70680       37.78973       -0.35227
N         69.37169       29.90166       -0.83476
C         67.98394       29.56834       -0.51282
C         67.75844       29.41698        1.03573
O         68.21218       28.26072        1.68645
C         67.36619       28.56537       -1.54186
C         68.03275       27.28597       -2.04445
O         67.53308       26.74164       -3.01609
O         69.14030       26.72586       -1.52550
H         70.11403       29.22120       -0.63992
H         67.37201       30.46557       -0.72364
H         67.31142       29.16760       -2.47851
H         66.31779       28.34352       -1.24904
N         66.38223       29.69309        1.47872
C         65.94596       31.09851        1.34222
C         67.05481       32.13522        1.39492
O         67.14343       32.92409        0.46402
H         66.34529       29.47187        2.50220
H         65.21435       31.32556        2.14909
H         65.39253       31.20545        0.38380
N         67.93457       32.19465        2.43801
C         68.99446       33.20324        2.51818
C         70.37803       32.58462        2.41862
O         70.50417       31.36740        2.42621
C         68.84160       34.06813        3.78757
C         69.02379       33.30614        5.07582
O         70.02703       33.63536        5.91139
O         68.25368       32.41286        5.38890
H         67.85344       31.48847        3.18332
H         68.91457       33.89117        1.64834
H         67.83834       34.54574        3.78752
H         69.59729       34.88187        3.75402
N         71.46600       33.38904        2.24037
C         72.79894       32.85033        2.00218
C         73.78866       33.89450        1.51640
O         73.49263       35.08089        1.51952
H         71.30877       34.40640        2.18590
H         72.71295       32.12222        1.17052
H         73.18273       32.31531        2.89721
N         74.96576       33.48268        0.96924
C         75.87869       34.37215        0.25106
C         77.30841       34.25042        0.74722
O         77.58422       33.44966        1.63133
C         75.78874       34.06286       -1.27268
C         76.08606       32.60252       -1.63386
O         74.50235       34.37380       -1.73442
H         75.16538       32.47040        0.96296
H         75.58484       35.43634        0.38743
H         76.52961       34.67739       -1.83309
H         74.51093       35.33744       -1.97262
H         76.04156       32.48196       -2.73675
H         77.09459       32.30177       -1.28507
H         75.32920       31.91830       -1.19712
N         78.28842       35.01220        0.17313
C         79.69995       34.86814        0.51392
C         79.97880       35.45452        1.89695
O         80.98296       35.09973        2.49707
C         80.63653       35.50163       -0.57508
C         80.23690       35.14786       -2.04039
C         82.11283       35.11634       -0.34295
C         80.13332       33.65344       -2.34802
H         78.01772       35.67530       -0.56381
H         79.90866       33.77455        0.52683
H         80.56232       36.60988       -0.50362
H         80.97131       35.60879       -2.73689
H         79.26131       35.60774       -2.29422
H         82.75842       35.57808       -1.12007
H         82.48412       35.47996        0.63380
H         82.24819       34.01489       -0.38108
H         81.10136       33.13927       -2.18969
H         79.35255       33.17896       -1.72012
H         79.83859       33.52325       -3.41124
N         79.13573       36.37631        2.45395
C         79.34165       36.97836        3.76872
C         79.50080       38.48836        3.65896
O         79.39245       39.03547        2.56960
C         78.17466       36.59037        4.71666
C         76.79844       37.05693        4.22252
O         78.14167       35.19610        4.87533
H         78.31182       36.68568        1.92014
H         80.28174       36.59888        4.22526
H         78.32795       37.06533        5.71287
H         78.85417       34.96494        5.52766
H         76.02347       36.77832        4.96738
H         76.77742       38.15941        4.09316
H         76.52663       36.57099        3.26245
N         79.77815       39.22106        4.77664
C         79.95168       40.66805        4.78362
C         81.36965       40.99233        5.23967
O         82.11280       41.59937        4.48139
C         78.84289       41.31591        5.66172
C         78.91376       42.84614        5.65824
O         78.90611       40.84440        6.98348
H         79.87762       38.72563        5.67483
H         79.82264       41.07792        3.75634
H         77.86561       41.01384        5.21570
H         78.01096       40.98086        7.39012
H         78.81439       43.23244        4.62214
H         78.07895       43.25935        6.26492
H         79.87214       43.19995        6.09290
N         81.80526       40.61637        6.47480
C         83.13544       40.88927        7.00382
C         83.60206       39.67930        7.79491
O         82.84781       39.18666        8.62439
C         83.07679       42.15997        7.86599
C         84.45630       42.52136        8.44812
C         84.49243       43.90163        9.12088
C         83.52046       44.03607       10.30175
N         83.65819       45.34625       10.93686
H         81.14126       40.14840        7.10518
H         83.85458       41.10375        6.18101
H         82.33280       42.03165        8.67977
H         82.74185       42.99229        7.20662
H         85.20281       42.54463        7.62346
H         84.77038       41.74218        9.17602
H         84.26299       44.68437        8.36482
H         85.52877       44.06967        9.48770
H         83.73054       43.24083       11.05035
H         82.47407       43.92168        9.94552
H         82.97384       45.41929       11.72376
H         84.62570       45.46037       11.31757
H         83.46034       46.10532       10.24464
N         84.84415       39.15276        7.60847
C         85.26442       37.92369        8.26757
C         84.60929       36.72448        7.58845
O         83.90039       36.00809        8.28064
C         86.80027       37.80376        8.36482
C         87.38304       38.86919        9.30852
C         88.86925       38.71129        9.45038
O         89.59713       38.83047        8.47783
O         89.40747       38.44497       10.65622
H         85.50377       39.63618        6.98011
H         84.92290       37.93991        9.32949
H         87.28254       37.89448        7.37665
H         87.04812       36.80554        8.79082
H         86.91678       38.75956       10.31313
H         87.16078       39.88898        8.92880
N         84.73735       36.41540        6.26166
C         85.49923       37.16876        5.28689
H         86.57718       37.15193        5.52339
H         85.38778       36.70128        4.28573
H         85.12278       38.20765        5.20924
H         84.23234       35.58717        5.90935
Ca        69.71644       27.16841        0.52788
O         68.18574       24.37663        0.18430
H         68.55540       24.13036       -0.70062
H         67.42038       24.97064       -0.02035
O         69.73460       27.88925        4.08013
H         68.92907       28.45524        4.18645
H         69.54509       27.08520        4.62538
O         72.32448       26.31916        3.11187
H         72.47982       26.76244        3.98363
H         72.51891       25.36343        3.28060
O         71.51540       23.89052        0.91650
H         71.15817       22.98931        0.71536
H         72.07076       24.11803        0.13005
O         72.33966       28.86199        1.57947
H         72.70008       29.71464        1.23174
H         71.36669       29.02047        1.66320
O         69.36917       24.61614        3.06809
H         69.25197       23.71034        2.68588
H         70.05679       24.49978        3.77071

Ca 1.0



