%chk=apoCaM-CA-Ng.loop2.water2.frame960.chk
%nprocshared=20
%mem=10GB
%nosave
#b3lyp/svp scf=(tight,noincore,xqc) Test 
#IOP(5/87=12) Density=Current Pop=(MK,readradii) iop(6/33=2) iop(6/42=6)

apoCaM-CA-Ng.loop2.water2.frame960 

   -2  1 
C         54.32409       95.71051       34.92204
C         54.06427       95.94217       36.38155
O         52.91286       96.11499       36.75406
H         55.40722       95.57219       34.71923
H         53.78473       94.79897       34.58969
H         53.96378       96.58240       34.33753
N         55.09505       95.94882       37.27166
C         54.92674       96.15840       38.70324
C         55.34635       94.91598       39.48493
O         55.37311       94.98248       40.70629
C         55.74447       97.40391       39.11048
C         55.49199       97.82407       40.53445
O         54.36701       98.13649       40.89264
O         56.50681       97.86749       41.41834
H         56.05405       95.79100       36.92309
H         53.86123       96.36175       38.94966
H         55.45265       98.25720       38.46054
H         56.82800       97.20530       38.95771
N         55.62534       93.72809       38.86169
C         56.00992       92.52215       39.58834
C         57.25152       91.88065       38.96990
O         57.55139       92.19189       37.82522
C         54.84451       91.53129       39.51633
H         55.50662       93.64637       37.84149
H         56.19778       92.78601       40.64555
H         53.93076       91.99053       39.94942
H         54.63216       91.26075       38.45806
H         55.06375       90.60760       40.08073
N         58.01876       90.93658       39.59878
C         57.93025       90.54812       41.00700
C         59.26945       90.80689       41.69486
O         60.24070       91.13091       41.02424
C         57.45728       89.08633       41.17098
C         58.33389       88.05793       40.51716
O         58.49284       88.05339       39.30752
O         58.88475       87.08349       41.26061
H         58.77687       90.51226       39.04321
H         57.18462       91.16885       41.53263
H         56.44288       88.97718       40.73940
H         57.37920       88.85688       42.25609
N         59.36972       90.75834       43.05298
C         60.58701       91.10940       43.77159
C         60.80627       90.18811       44.94651
O         60.69108       90.66330       46.06751
H         58.51643       90.57908       43.60442
H         60.43292       92.13174       44.18188
H         61.48258       91.15334       43.11672
N         61.08812       88.86138       44.83345
C         61.34099       88.14237       43.59071
C         62.72365       88.52128       43.07596
O         63.68174       88.38526       43.82462
C         61.22383       86.62867       43.89424
C         61.28263       85.69877       42.71425
N         61.07624       84.37635       42.91158
O         61.48715       86.12020       41.58822
H         61.13557       88.32567       45.71614
H         60.54495       88.37827       42.85403
H         60.22406       86.46846       44.35591
H         61.99989       86.32302       44.62861
H         60.88202       84.01093       43.85497
H         61.09251       83.71272       42.12862
N         62.90512       89.00294       41.81269
C         64.19231       89.47668       41.31206
C         64.85058       88.53798       40.31817
O         65.92053       88.88071       39.83461
H         62.09532       89.05169       41.18105
H         64.91696       89.60767       42.14401
H         64.04194       90.47838       40.85393
N         64.31971       87.32118       40.00926
C         64.97567       86.33234       39.15405
C         64.09137       85.98045       37.96691
O         63.01661       86.54733       37.83115
C         65.29937       85.07144       40.00108
C         66.30221       85.37789       41.11629
O         64.12399       84.55004       40.57301
H         63.42666       87.04724       40.43547
H         65.93289       86.72283       38.74332
H         65.79596       84.30663       39.36012
H         63.92962       83.68476       40.12778
H         67.24935       85.76452       40.68217
H         65.89600       86.12845       41.82636
H         66.53157       84.44798       41.67949
N         64.48301       85.03205       37.06689
C         63.65657       84.58249       35.95135
C         63.29243       83.13310       36.20557
O         64.17998       82.28943       36.22925
C         64.42179       84.75952       34.60977
C         63.68944       84.13429       33.39150
C         64.75468       86.24072       34.36078
C         62.30709       84.71715       33.08940
H         65.39595       84.56988       37.19552
H         62.71820       85.17701       35.90487
H         65.39104       84.21794       34.69680
H         63.57270       83.04169       33.55747
H         64.32926       84.25621       32.49037
H         63.83284       86.85321       34.28265
H         65.36877       86.64801       35.19154
H         65.34187       86.34802       33.42404
H         62.37192       85.79714       32.84871
H         61.87982       84.19459       32.20745
H         61.61693       84.56523       33.94360
N         62.00179       82.78716       36.47606
C         61.60265       81.44339       36.87287
C         60.31428       80.96179       36.19687
O         59.89845       79.86731       36.54338
C         61.53480       81.37052       38.41922
C         60.62046       82.40540       38.98760
O         61.11823       83.38820       39.75875
O         59.44532       82.43111       38.66266
H         61.29967       83.53847       36.54237
H         62.38502       80.70590       36.58674
H         62.55784       81.55950       38.81570
H         61.22729       80.35759       38.75451
N         59.64354       81.66818       35.22123
C         58.48339       81.10471       34.51165
C         57.89103       82.08522       33.48727
O         58.63006       82.52792       32.62087
C         58.90734       79.81897       33.74528
C         57.75917       79.14609       33.03014
C         57.38717       79.55098       31.73614
C         57.06112       78.09300       33.64587
C         56.33358       78.91678       31.07350
C         56.00616       77.46219       32.97979
C         55.64309       77.87339       31.69460
H         59.97890       82.60092       34.94591
H         57.71655       80.82037       35.26038
H         59.34011       79.07103       34.43504
H         59.71994       80.03949       33.01899
H         57.91592       80.35215       31.23656
H         57.33109       77.76295       34.64154
H         56.05544       79.23279       30.07657
H         55.47133       76.65290       33.45955
H         54.82869       77.38192       31.17882
N         56.54655       82.37953       33.44193
C         55.90978       83.07220       32.32181
C         56.11425       84.57723       32.30742
O         55.60901       85.21359       31.39146
C         54.43177       82.68969       32.46921
C         54.27718       82.61617       33.97162
C         55.55564       81.88423       34.37621
H         56.26764       82.67029       31.34792
H         53.71007       83.34433       31.93372
H         54.30063       81.65045       32.08776
H         54.32393       83.65857       34.36157
H         53.34072       82.14133       34.33450
H         55.79239       82.12439       35.43491
H         55.45690       80.78454       34.23607
N         56.84544       85.22296       33.25596
C         57.08158       86.66772       33.22619
C         57.88369       87.13285       32.01147
O         58.01492       88.33775       31.84590
C         57.78361       87.11749       34.52360
C         59.19274       86.52373       34.66664
C         59.70721       86.73982       36.04803
O         59.88269       85.65163       36.80756
O         59.94527       87.85478       36.48069
H         57.20852       84.67143       34.04418
H         56.08660       87.16526       33.19599
H         57.15048       86.77765       35.37407
H         57.85130       88.22652       34.57283
H         59.89624       86.93748       33.91353
H         59.15939       85.42580       34.51215
N         58.46031       86.25746       31.13446
C         59.21616       86.67680       29.97100
H         60.25062       86.28080       30.04247
H         58.73682       86.26737       29.05702
H         59.26904       87.78106       29.87058
H         58.38267       85.24279       31.28262
Ca        60.68492       85.37561       38.86134
O         61.54784       88.79359       38.70804
H         61.82521       89.39562       37.97378
H         60.83389       89.29005       39.17728
O         57.43652       85.21574       39.16794
H         56.85767       84.97140       39.93285
H         57.75969       84.35030       38.81556

Ca 1.0



