%chk=apoCaM-CA-Ng.loop3.water6.frame1117.chk
%nprocshared=20
%mem=10GB
%nosave
#b3lyp/svp scf=(tight,noincore,xqc) Test 
#IOP(5/87=12) Density=Current Pop=(MK,readradii) iop(6/33=2) iop(6/42=6)

apoCaM-CA-Ng.loop3.water6.frame1117 

   0  1 
C         66.29514       88.21396       62.14322
C         67.07444       89.00473       63.15073
O         66.76289       90.16582       63.36892
H         65.47296       88.82411       61.71147
H         66.96754       87.88053       61.32608
H         65.85140       87.32358       62.63791
N         68.09716       88.41556       63.82885
C         68.86951       89.08894       64.86650
C         70.36391       89.09185       64.56297
O         71.13685       89.37370       65.46719
C         68.53336       88.48678       66.24923
C         68.93515       87.05319       66.44640
O         69.77063       86.73214       67.45239
O         68.47224       86.16984       65.74329
H         68.31407       87.42930       63.62067
H         68.56569       90.15463       64.95384
H         67.43720       88.56993       66.41126
H         69.03185       89.10066       67.03145
N         70.84150       88.86775       63.29891
C         72.25353       88.94664       62.92230
C         72.79416       90.33934       63.21913
O         73.77582       90.47250       63.93836
C         73.07337       87.82512       63.60746
C         72.55064       86.42930       63.22545
C         73.34527       85.28129       63.87776
C         73.28217       85.22944       65.41792
N         71.91645       85.04892       65.90884
H         70.17612       88.67311       62.53771
H         72.33227       88.79627       61.82214
H         73.03190       87.95902       64.70638
H         74.13726       87.90248       63.29106
H         72.63271       86.31788       62.12249
H         71.47646       86.33321       63.48566
H         74.41001       85.36111       63.56988
H         72.94963       84.32008       63.48365
H         73.72222       86.14684       65.86307
H         73.89975       84.37029       65.76068
H         71.49444       84.18140       65.50520
H         71.93459       84.96380       66.95086
H         71.33582       85.87681       65.65685
N         72.14537       91.43576       62.72650
C         72.51298       92.81141       63.06484
C         71.43533       93.39809       63.96779
O         70.93972       94.49476       63.75116
C         72.80199       93.62017       61.78233
C         71.66935       93.54399       60.79412
O         71.86486       92.93685       59.60920
O         70.56425       93.98028       61.07229
H         71.30172       91.28505       62.15227
H         73.43907       92.82325       63.68022
H         73.70334       93.18038       61.30190
H         73.03213       94.67938       62.02822
N         71.03586       92.65146       65.02887
C         70.04636       93.00992       66.02489
C         70.61164       92.71809       67.40236
O         71.80833       92.48536       67.51261
H         71.45233       91.72003       65.13342
H         69.19006       92.32113       65.87165
H         69.68013       94.05497       65.92772
N         69.83146       92.59346       68.50953
C         68.39116       92.79205       68.55813
C         67.69650       91.43753       68.60751
O         68.09930       90.60258       69.40552
C         68.02901       93.59725       69.82221
C         68.61546       94.98887       69.85543
N         68.39027       95.78154       70.92760
O         69.28927       95.40958       68.92585
H         70.29145       92.26960       69.37581
H         68.04066       93.37352       67.68440
H         68.38290       93.04343       70.72019
H         66.92299       93.69165       69.88753
H         67.82760       95.44209       71.72171
H         68.78207       96.73386       70.96699
N         66.61342       91.13567       67.83244
C         65.97379       92.10194       66.95390
C         64.66104       91.58954       66.42758
O         63.82801       91.20373       67.23849
H         66.18651       90.20121       67.94240
H         66.65678       92.38815       66.12632
H         65.72462       93.00544       67.55140
N         64.38214       91.57985       65.09005
C         63.08339       91.13615       64.58412
C         63.05913       91.00414       63.06017
O         63.95497       91.49102       62.38191
C         61.98732       92.14385       65.03539
C         60.58191       91.62780       64.88696
C         59.67239       92.24577       64.01445
C         60.16118       90.53198       65.65822
C         58.36226       91.76733       63.91109
C         58.85147       90.05976       65.55818
C         57.94656       90.67605       64.68276
O         56.67794       90.23230       64.57985
H         65.11758       91.88699       64.43706
H         62.91484       90.12154       65.00962
H         62.13602       93.09103       64.46996
H         62.09002       92.40513       66.10703
H         59.97480       93.09618       63.41651
H         60.84553       90.05192       66.34710
H         57.66774       92.24926       63.23498
H         58.54126       89.21899       66.16567
H         56.35146       89.48617       65.10306
N         62.05630       90.30229       62.45949
C         61.96454       90.10141       61.01008
C         61.60139       91.40880       60.29619
O         61.23688       92.36963       60.96025
C         61.04868       88.86068       60.69732
C         59.57501       89.00455       61.17760
C         61.10064       88.44914       59.21420
C         58.80248       87.67987       61.10873
H         61.38997       89.82856       63.08149
H         62.98341       89.81428       60.66640
H         61.50970       88.02521       61.27128
H         59.04705       89.78339       60.58750
H         59.53306       89.30850       62.23992
H         62.15329       88.37227       58.86907
H         60.64636       87.45140       59.05802
H         60.54043       89.16825       58.58156
H         59.32544       86.90167       61.70751
H         57.78448       87.81455       61.52954
H         58.68804       87.31913       60.06750
N         61.73084       91.52656       58.93986
C         61.45559       92.74999       58.19022
C         62.69688       93.19799       57.41852
O         63.73002       92.54668       57.49073
C         60.24522       92.52058       57.26755
O         60.49941       91.48189       56.36222
H         62.06657       90.72115       58.39692
H         61.18019       93.57909       58.87869
H         59.99319       93.44702       56.70749
H         59.37281       92.26215       57.91261
H         59.61324       91.19170       56.02042
N         62.65613       94.33877       56.67212
C         63.78524       94.93448       55.96364
C         64.37958       94.03673       54.88631
O         65.59615       93.96378       54.77872
C         64.84635       95.42300       56.96483
H         61.76636       94.85671       56.62197
H         63.39645       95.83261       55.43451
H         65.66479       95.95911       56.43837
H         64.38614       96.12110       57.69461
H         65.28734       94.57054       57.52309
N         63.57916       93.34632       54.02297
C         64.08579       92.57213       52.89162
C         65.19164       91.61488       53.31008
O         66.30481       91.71806       52.80956
C         64.53967       93.52227       51.77335
H         62.55825       93.37070       54.16580
H         63.24861       91.97532       52.46548
H         65.38001       94.16684       52.10505
H         64.86414       92.93583       50.88589
H         63.69116       94.16912       51.46473
N         64.94142       90.64346       54.22726
C         65.94778       89.68665       54.66841
C         65.57348       88.32289       54.13359
O         66.36897       87.73740       53.41156
C         66.06926       89.72989       56.20738
C         67.18132       88.82493       56.76840
C         68.53954       89.21519       56.25391
O         69.01161       90.45735       56.46870
O         69.21904       88.41039       55.63714
H         63.98601       90.56505       54.60812
H         66.94456       89.95129       54.25017
H         65.10148       89.43846       56.66924
H         66.28503       90.77557       56.51743
H         66.96736       87.76391       56.51569
H         67.19275       88.91892       57.87589
N         64.35080       87.78251       54.39754
C         63.89609       86.52927       53.83157
H         62.99773       86.72152       53.20684
H         64.66383       86.04900       53.18896
H         63.62585       85.82971       54.64781
H         63.68817       88.29579       54.99688
Ca        70.11326       92.56959       58.24268
O         69.82325       89.89005       59.89289
H         69.01703       89.83410       60.46490
H         70.25164       89.00154       59.97786
O         71.57321       93.58542       55.84241
H         72.26501       92.94894       56.15393
H         70.97160       93.03980       55.27584
O         67.38340       92.05880       59.51994
H         66.97824       92.53824       60.28548
H         66.63941       91.53521       59.12950
O         72.17242       90.32474       57.60197
H         73.03203       89.94107       57.29621
H         71.49052       89.67191       57.30446
O         69.59649       95.51322       58.72499
H         70.56206       95.68232       58.58452
H         69.14116       96.11321       58.08311
O         67.86508       93.80549       56.83149
H         67.30632       93.01752       56.61666
H         68.16284       94.14984       55.95257

Ca 1.0



