%chk=apoCaM-CA-Ng.loop2.water3.frame146.chk
%nprocshared=20
%mem=10GB
%nosave
#b3lyp/svp scf=(tight,noincore,xqc) Test 
#IOP(5/87=12) Density=Current Pop=(MK,readradii) iop(6/33=2) iop(6/42=6)

apoCaM-CA-Ng.loop2.water3.frame146 

   -2  1 
C         37.93360       61.46616       71.81090
C         38.28959       62.08486       70.49616
O         39.16527       61.56830       69.81543
H         36.86665       61.16233       71.79581
H         38.56099       60.56928       72.00412
H         38.09865       62.20173       72.62537
N         37.64858       63.21402       70.07816
C         37.94483       63.86900       68.81204
C         38.55011       65.24090       69.07686
O         38.22554       66.19572       68.38706
C         36.65086       63.88873       67.96740
C         36.83645       64.41011       66.57165
O         37.59368       63.84551       65.79980
O         36.13335       65.47964       66.15264
H         36.93050       63.63400       70.68894
H         38.71813       63.29144       68.26000
H         35.88195       64.49565       68.49484
H         36.26727       62.84842       67.88505
N         39.46730       65.38451       70.08093
C         40.22676       66.58754       70.39206
C         41.36856       66.76945       69.36835
O         42.28607       67.73101       69.77995
C         39.34945       67.83168       70.62334
H         39.66544       64.56956       70.68028
H         40.73258       66.39724       71.36299
H         39.98335       68.68508       70.94772
H         38.80123       68.14805       69.71562
H         38.60865       67.62910       71.42543
N         40.92189       67.02220       68.00762
C         42.05645       67.17861       67.06827
C         42.00526       66.13107       65.97407
O         42.88019       66.14999       65.11896
C         42.12512       68.64140       66.55434
C         40.87188       69.13269       65.87186
O         40.68389       70.45691       65.71852
O         39.99492       68.35910       65.51951
H         40.28282       67.84752       68.00777
H         43.03200       66.98965       67.57527
H         42.99807       68.80460       65.88580
H         42.28299       69.27888       67.45243
N         41.04782       65.15213       65.95039
C         41.01061       64.12762       64.91875
C         42.21985       63.20315       64.93470
O         42.45466       62.54630       63.93143
H         40.30764       65.12885       66.66610
H         40.95461       64.64839       63.93886
H         40.09736       63.50551       65.02202
N         43.02804       63.09477       66.02938
C         44.28019       62.33285       66.05261
C         44.10002       60.85437       65.71318
O         43.34641       60.15420       66.37426
C         44.97177       62.49100       67.42089
C         45.29579       63.94119       67.69591
N         46.14686       64.62272       66.89187
O         44.77995       64.50578       68.64853
H         42.76456       63.61719       66.87811
H         44.95352       62.77544       65.28831
H         45.92081       61.91319       67.43993
H         44.30313       62.09019       68.21467
H         46.59926       64.16446       66.08790
H         46.36156       65.61319       67.07189
N         44.78909       60.33465       64.65439
C         44.67407       58.97768       64.14327
C         45.27455       57.90177       65.02042
O         46.32501       58.10915       65.61195
H         45.40885       60.96297       64.12116
H         45.25954       58.92903       63.20045
H         43.61988       58.75192       63.87638
N         44.71428       56.65530       65.01251
C         45.28748       55.48966       65.69421
C         45.26109       55.62185       67.21675
O         45.80087       54.75639       67.89183
C         44.59190       54.17437       65.21768
C         43.09603       54.06920       65.57048
O         44.78433       53.99982       63.83370
H         43.87542       56.52841       64.43054
H         46.35319       55.40493       65.38450
H         45.08851       53.31079       65.71222
H         44.16373       54.60172       63.34732
H         42.96606       54.02356       66.66296
H         42.50829       54.92125       65.17208
H         42.67288       53.13344       65.14756
N         44.63755       56.67075       67.82114
C         44.55215       56.88469       69.26057
C         45.10033       58.26394       69.61468
O         45.56052       58.97816       68.73281
C         43.06362       56.74109       69.71070
C         42.12100       57.66229       68.88833
C         42.63360       55.26959       69.62582
C         40.73124       57.80434       69.49561
H         44.16052       57.36721       67.23766
H         45.16163       56.14378       69.82438
H         42.98804       57.01342       70.77993
H         42.02114       57.27516       67.84985
H         42.54801       58.68629       68.83548
H         41.62113       55.11675       70.04649
H         42.63375       54.93006       68.57858
H         43.33549       54.62999       70.20385
H         40.81258       58.27098       70.50007
H         40.11967       58.46591       68.84621
H         40.21862       56.82636       69.57732
N         45.01847       58.72480       70.89771
C         45.35293       60.08903       71.27931
C         46.13412       60.13374       72.61110
O         46.39161       61.21820       73.11007
C         44.02015       60.87242       71.27149
C         44.15993       62.36950       71.22946
O         43.15650       63.05521       71.11558
O         45.36792       62.96497       71.24064
H         44.55806       58.14024       71.60853
H         45.98763       60.55491       70.49390
H         43.37283       60.54841       72.11354
H         43.48970       60.61758       70.32516
N         46.59873       58.98716       73.20208
C         47.44093       58.92540       74.40300
C         46.71057       59.40527       75.65749
O         45.75160       58.75423       76.04834
C         47.91250       57.45590       74.57399
C         48.70969       57.14694       75.81730
C         49.89022       57.84295       76.12004
C         48.28182       56.11480       76.67459
C         50.62491       57.51465       77.26520
C         49.02368       55.78380       77.80998
C         50.19394       56.48433       78.10679
H         46.41558       58.09278       72.72920
H         48.34470       59.53855       74.22100
H         48.53222       57.19290       73.68905
H         47.01664       56.79458       74.55467
H         50.24159       58.63554       75.47297
H         47.38141       55.55209       76.45799
H         51.53289       58.05448       77.49777
H         48.69233       54.98025       78.45588
H         50.76769       56.22507       78.98695
N         47.10329       60.52009       76.36501
C         46.47353       60.96471       77.60816
C         45.04693       61.45553       77.43091
O         44.38920       61.70845       78.43074
C         47.40415       62.07362       78.11513
C         47.95060       62.64503       76.82288
C         48.20723       61.38534       76.00246
H         46.45317       60.13567       78.34959
H         46.94260       62.80960       78.80973
H         48.26644       61.59689       78.63184
H         47.12887       63.21543       76.33130
H         48.83340       63.31141       76.92557
H         48.21957       61.67182       74.93072
H         49.15682       60.88123       76.28831
N         44.48746       61.56902       76.20109
C         43.08522       61.86238       75.97566
C         42.33159       60.56064       75.82006
O         41.26535       60.42162       76.40319
C         42.93903       62.70732       74.71782
C         43.61665       64.07086       74.87082
C         43.35841       64.83919       73.63243
O         42.20322       65.10553       73.33986
O         44.34230       65.23376       72.81017
H         45.05499       61.36013       75.37052
H         42.63598       62.43983       76.81651
H         41.85440       62.85500       74.51227
H         43.38614       62.17247       73.85521
H         44.70853       63.96305       75.04470
H         43.17017       64.63536       75.72011
N         42.85467       59.53469       75.09195
C         42.19350       58.25604       74.97598
H         41.23720       58.37685       74.42801
H         42.84459       57.54657       74.42180
H         41.99862       57.83500       75.98645
H         43.77194       59.64150       74.63671
Ca        43.30068       66.45910       71.29263
O         45.15669       68.16784       72.13074
H         45.90914       68.80619       72.12972
H         44.34989       68.71903       72.29637
O         45.39317       67.45207       68.86029
H         45.83486       68.20853       69.32010
H         45.44987       67.67985       67.89859
O         47.16966       65.71314       70.60718
H         47.58498       64.84958       70.35795
H         47.93484       66.31064       70.80216

Ca 1.0



