%chk=apoCaM-CA-Ng.loop3.water7.frame1165.chk
%nprocshared=20
%mem=10GB
%nosave
#b3lyp/svp scf=(tight,noincore,xqc) Test 
#IOP(5/87=12) Density=Current Pop=(MK,readradii) iop(6/33=2) iop(6/42=6)

apoCaM-CA-Ng.loop3.water7.frame1165 

   0  1 
C         70.46220       38.00183       83.15896
C         71.28198       36.75336       83.01595
O         72.08521       36.66964       82.09755
H         69.38284       37.75018       83.09892
H         70.67228       38.47248       84.14268
H         70.70667       38.73134       82.35691
N         71.12996       35.73694       83.91142
C         71.90668       34.50096       83.86952
C         71.04091       33.26021       83.67907
O         71.61195       32.17920       83.64859
C         72.77967       34.38314       85.14153
C         72.03442       34.23636       86.44709
O         70.81486       34.20637       86.49161
O         72.73634       34.12109       87.58997
H         70.44188       35.86120       84.66905
H         72.61356       34.52344       83.01025
H         73.42806       35.28360       85.20658
H         73.44509       33.49877       85.03419
N         69.68285       33.32447       83.49809
C         68.82416       32.15925       83.27113
C         69.38272       31.28585       82.16209
O         69.68715       30.12065       82.37529
C         68.47558       31.39986       84.57365
C         69.64648       30.82808       85.38440
C         69.11341       29.96371       86.53126
C         70.25551       29.40705       87.38653
N         69.73680       28.51365       88.42135
H         69.22687       34.24625       83.44457
H         67.83673       32.52748       82.91041
H         67.79258       30.56903       84.28676
H         67.90475       32.08600       85.23809
H         70.25300       31.66098       85.79592
H         70.29111       30.18848       84.74855
H         68.53789       29.11593       86.09719
H         68.43342       30.56337       87.17553
H         70.80362       30.25111       87.86168
H         70.96631       28.84222       86.74315
H         69.05765       29.02219       89.03285
H         69.26357       27.69289       87.97710
H         70.53129       28.16834       89.00614
N         69.54714       31.82687       80.92915
C         70.16186       31.12873       79.80612
C         71.41543       31.85649       79.31977
O         72.05492       31.37503       78.39505
C         69.10219       30.90962       78.70977
C         68.48201       32.15852       78.14030
O         67.54052       32.04967       77.37470
O         68.92789       33.38839       78.46205
H         69.22139       32.79496       80.79207
H         70.49719       30.11535       80.11929
H         68.28544       30.31082       79.17090
H         69.53026       30.31038       77.87729
N         71.84301       33.00740       79.91986
C         73.04649       33.73695       79.56867
C         74.32270       32.99161       79.92431
O         74.25758       31.82023       80.26847
H         71.29800       33.42322       80.68544
H         73.03482       34.65889       80.19033
H         73.03552       34.03451       78.49777
N         75.53931       33.61649       79.95013
C         75.73555       35.03696       79.66950
C         75.95619       35.79546       80.97667
O         76.23530       35.16479       81.98739
C         76.89503       35.23297       78.67495
C         76.55350       34.66372       77.32230
N         77.30579       33.68706       76.76761
O         75.59013       35.10432       76.71196
H         76.35587       33.07475       80.27636
H         74.82385       35.45302       79.21516
H         77.81628       34.76778       79.08902
H         77.11401       36.30462       78.52396
H         78.12660       33.30684       77.25981
H         77.06735       33.31363       75.83691
N         75.74013       37.14114       81.08843
C         75.32006       37.98116       79.97715
C         74.93303       39.36163       80.42937
O         75.76092       40.05712       81.00211
H         75.82832       37.56637       82.02592
H         74.43602       37.53254       79.48479
H         76.13810       38.07675       79.23984
N         73.66753       39.82194       80.19507
C         73.22261       41.15468       80.59178
C         71.71214       41.32219       80.38074
O         71.09641       40.52415       79.68591
C         73.98206       42.21694       79.75275
C         73.93788       43.60621       80.32891
C         73.26235       44.64428       79.66917
C         74.62899       43.88184       81.52064
C         73.27509       45.93916       80.19842
C         74.65216       45.17789       82.04014
C         73.97449       46.21230       81.37981
O         73.99620       47.46983       81.86533
H         73.00208       39.17712       79.74503
H         73.44171       41.24507       81.67921
H         73.57849       42.18922       78.71590
H         75.06063       41.97411       79.66459
H         72.72887       44.45310       78.74701
H         75.17130       43.09649       82.03350
H         72.74999       46.73347       79.68369
H         75.20456       45.37749       82.94997
H         74.48491       47.70221       82.66804
N         71.04082       42.34106       80.98274
C         69.60265       42.55891       80.80839
C         69.29015       42.96112       79.36994
O         69.96636       43.83872       78.85241
C         69.05951       43.58989       81.84559
C         69.64894       45.01674       81.67664
C         67.51687       43.60345       81.80257
C         69.27990       45.95432       82.82825
H         71.57272       42.94639       81.62354
H         69.08240       41.60400       81.05031
H         69.35759       43.20701       82.84797
H         69.30953       45.46692       80.72012
H         70.75574       44.97038       81.65902
H         67.09192       44.21918       82.61896
H         67.14935       43.99380       80.82998
H         67.11999       42.57484       81.94294
H         69.77172       46.93754       82.67542
H         68.18725       46.12968       82.88101
H         69.63185       45.53045       83.79339
N         68.27951       42.35950       78.66758
C         67.96089       42.69158       77.27127
C         66.85278       41.81170       76.68214
O         66.20632       41.06176       77.40026
C         67.55259       44.17602       77.11453
O         66.40452       44.44358       77.87222
H         67.73760       41.62649       79.14887
H         68.87729       42.49892       76.67084
H         67.35297       44.39819       76.04296
H         68.37084       44.85186       77.43405
H         66.17895       45.39547       77.70236
N         66.60879       41.86189       75.33720
C         65.61049       41.07935       74.61145
C         64.19295       41.47731       74.98027
O         63.40221       40.62435       75.36217
C         65.86783       39.57078       74.76287
H         67.19742       42.48537       74.76388
H         65.71951       41.31619       73.52986
H         66.90076       39.32920       74.43650
H         65.73371       39.23722       75.81199
H         65.15797       38.99655       74.12986
N         63.80032       42.78315       74.86120
C         62.44485       43.27716       75.11094
C         61.96183       43.07248       76.54125
O         60.81785       43.41385       76.81342
C         61.45748       42.63275       74.12162
H         64.49755       43.47353       74.54392
H         62.43059       44.37190       74.91256
H         60.44481       43.07518       74.24123
H         61.78943       42.81677       73.07838
H         61.36914       41.53840       74.28093
N         62.74211       42.50015       77.50312
C         62.22688       42.15331       78.81612
C         61.88171       43.41374       79.58469
O         60.73783       43.57522       79.98577
C         63.25946       41.27790       79.57059
C         62.68090       40.47601       80.75027
C         61.80894       39.32515       80.29734
O         60.75327       39.51968       79.71746
O         62.19968       38.05851       80.53888
H         63.71215       42.24140       77.29082
H         61.31984       41.54206       78.64817
H         64.09474       41.92300       79.91921
H         63.69839       40.52689       78.87599
H         62.13238       41.13413       81.45613
H         63.54219       40.03007       81.29275
N         62.83233       44.37290       79.78147
C         62.58250       45.63116       80.45459
H         61.53605       45.72096       80.81313
H         63.26604       45.72659       81.32363
H         62.78326       46.46680       79.75038
H         63.78322       44.22085       79.41249
Ca        67.31159       34.58800       76.01000
O         66.93488       33.94420       73.05139
H         66.63800       34.87534       72.89246
H         66.09573       33.43137       73.16626
O         65.77966       35.10820       78.75442
H         66.25873       35.91809       79.06261
H         66.24587       34.35838       79.20258
O         68.48093       31.73083       74.73787
H         69.34579       31.45544       74.34411
H         68.07319       30.88670       75.05725
O         67.79843       37.47310       76.40089
H         68.75047       37.42719       76.66763
H         67.31125       37.66184       77.24192
O         70.02321       35.03329       74.64268
H         69.68169       34.32416       74.04190
H         70.48440       34.54223       75.36843
O         64.79726       32.57536       75.84478
H         63.94798       32.36321       75.38252
H         65.16881       31.69271       76.09564
O         64.60297       35.87119       75.63033
H         64.67421       36.27337       74.72842
H         64.57692       36.64510       76.24732

Ca 1.0



