%chk=apoCaM-CA-Ng.loop2.water4.frame1038.chk
%nprocshared=20
%mem=10GB
%nosave
#b3lyp/svp scf=(tight,noincore,xqc) Test 
#IOP(5/87=12) Density=Current Pop=(MK,readradii) iop(6/33=2) iop(6/42=6)

apoCaM-CA-Ng.loop2.water4.frame1038 

   -2  1 
C         13.77051       50.88885       75.03206
C         13.48938       51.32346       73.61700
O         13.54870       50.47921       72.73492
H         14.64255       51.44400       75.43471
H         12.89324       51.04449       75.68483
H         14.01161       49.80467       75.06197
N         13.20467       52.61482       73.27526
C         13.10139       53.72506       74.22404
C         13.42530       55.06929       73.56752
O         13.69703       55.12243       72.37605
C         11.72368       53.70663       74.93292
C         10.56237       53.66138       73.98294
O         10.35503       54.57471       73.20462
O          9.72981       52.60392       74.00439
H         13.07047       52.81114       72.27077
H         13.89632       53.62145       74.99279
H         11.61353       54.57682       75.61156
H         11.65469       52.80674       75.56967
N         13.48250       56.19929       74.33799
C         13.93005       57.52237       73.89556
C         13.04273       58.21104       72.86469
O         13.35823       59.34055       72.51450
C         15.38286       57.45068       73.39851
H         13.26466       56.11032       75.34130
H         13.92625       58.18569       74.78894
H         15.47133       56.84056       72.47626
H         15.76747       58.46798       73.17299
H         16.02799       57.00484       74.18495
N         11.94128       57.61993       72.32350
C         11.11726       58.24879       71.29956
C          9.61193       58.17177       71.69653
O          9.17931       56.84818       71.78475
C         11.52694       57.70980       69.89711
C         11.61060       56.21175       69.69348
O         12.01025       55.78350       68.62361
O         11.27270       55.33484       70.65484
H         11.69163       56.66970       72.60908
H         11.34361       59.33617       71.24447
H         12.55681       58.08156       69.70357
H         10.86671       58.15473       69.12134
N          8.74315       58.94249       70.78051
C          7.36026       59.12009       71.28198
C          6.38834       58.26025       70.49564
O          6.47197       57.04521       70.57694
H          9.16717       59.89022       70.65166
H          7.07048       60.18544       71.14205
H          7.27902       58.90491       72.37014
N          5.42648       58.81900       69.70140
C          4.61670       58.01477       68.78644
C          5.53488       57.51190       67.68632
O          6.14222       58.33961       67.01926
C          3.47458       58.85635       68.17729
C          2.59736       58.03957       67.25609
N          1.90267       56.97366       67.72082
O          2.50842       58.35030       66.07772
H          5.31023       59.84411       69.69988
H          4.15326       57.17663       69.35218
H          3.90538       59.71694       67.61827
H          2.83872       59.26252       68.99308
H          1.95223       56.69923       68.71245
H          1.30523       56.42178       67.08730
N          5.70848       56.18075       67.44768
C          6.69975       55.68095       66.50420
C          8.10722       55.86825       67.09848
O          8.41240       57.14009       67.52497
H          5.13523       55.49816       67.96391
H          6.56991       56.17915       65.52112
H          6.55494       54.58739       66.36968
N          9.25890       55.24878       66.45889
C          9.39893       55.24846       65.00095
C          9.48236       53.80956       64.53835
O          9.47427       53.57848       63.33742
C         10.66176       56.02532       64.52836
C         10.67680       57.49474       64.97150
O         11.84797       55.37556       64.92292
H         10.12266       55.19792       67.04189
H          8.50658       55.71319       64.53568
H         10.65455       56.03075       63.41618
H         11.99185       55.53503       65.89015
H          9.77428       58.02169       64.59857
H         10.71527       57.57573       66.07827
H         11.57758       57.99694       64.55612
N          9.60834       52.78932       65.44481
C          9.73545       51.39531       65.08214
C          8.62654       50.60876       65.78482
O          8.64018       50.53598       67.00380
C         11.18217       50.88419       65.40005
C         11.60076       51.05763       66.89423
C         12.17660       51.61387       64.47278
C         12.98942       50.50786       67.22403
H          9.64659       52.98652       66.45256
H          9.61610       51.29812       63.99162
H         11.21834       49.80349       65.14169
H         10.90197       50.50939       67.55135
H         11.58662       52.13024       67.18382
H         12.21048       52.69958       64.70281
H         13.19756       51.20032       64.56996
H         11.88258       51.48513       63.40985
H         13.17838       50.62418       68.31286
H         13.04783       49.43002       66.96586
H         13.78681       51.06503       66.69308
N          7.57588       50.03584       65.12565
C          7.33201       50.14580       63.69014
C          8.41304       49.39889       62.91007
O          9.12626       48.59793       63.50214
C          5.91514       49.57769       63.39074
C          5.28943       49.89966       62.05770
O          5.80915       50.66606       61.26668
O          4.07745       49.38870       61.77058
H          6.87017       49.55625       65.70874
H          7.34101       51.23221       63.44732
H          5.20401       49.99479       64.13757
H          5.94403       48.47502       63.53017
N          8.62758       49.65362       61.59018
C          9.62055       48.96279       60.77179
C          9.64545       49.58353       59.38457
O          8.57935       49.68979       58.78610
C          9.30301       47.44653       60.67355
C         10.35856       46.70675       59.87960
C         10.38212       46.77072       58.47356
C         11.34609       45.95867       60.54414
C         11.37988       46.11231       57.75125
C         12.34632       45.30629       59.81716
C         12.36435       45.38461       58.42240
H          8.07913       50.40248       61.15138
H         10.61359       49.07041       61.25694
H          8.29584       47.25409       60.24322
H          9.28990       47.02776       61.69897
H          9.62925       47.32790       57.93231
H         11.35497       45.89655       61.62519
H         11.39124       46.17077       56.67054
H         13.11126       44.74406       60.33632
H         13.14065       44.88119       57.86144
N         10.79814       49.97030       58.75940
C         12.15655       49.76455       59.25388
C         12.59741       50.89172       60.17341
O         11.79729       51.75133       60.51341
C         12.96595       49.75294       57.94555
C         12.26366       50.81835       57.13263
C         10.80342       50.47726       57.39934
H         12.30679       48.78212       59.74898
H         14.06341       49.88137       58.04349
H         12.78810       48.77876       57.43370
H         12.49727       51.80230       57.59922
H         12.53433       50.86239       56.05692
H         10.16578       51.37826       57.26698
H         10.45634       49.66216       56.72567
N         13.90797       50.96906       60.55113
C         14.47195       52.09386       61.27823
C         15.30098       51.75435       62.53200
O         15.83307       52.71522       63.07217
C         15.32585       52.91642       60.27690
C         16.51404       52.14290       59.67232
C         17.29965       53.01113       58.73343
O         18.60182       53.25650       58.97238
O         16.76846       53.48429       57.74096
H         14.55650       50.24837       60.20569
H         13.66279       52.77729       61.61780
H         15.70802       53.82921       60.78488
H         14.66204       53.25263       59.44897
H         16.15968       51.26461       59.09485
H         17.18170       51.78721       60.48557
N         15.52760       50.52803       63.10493
C         14.96902       49.23099       62.78060
H         14.15682       49.23353       62.05046
H         15.78259       48.55460       62.44291
H         14.52223       48.80269       63.70206
H         16.17760       50.51181       63.90753
Ca         8.78958       56.44696       69.61093
O          9.55565       52.99324       69.55721
H          8.91312       52.62323       68.90136
H         10.29454       52.33449       69.58120
O          5.68184       53.87155       70.24498
H          5.25765       53.58569       69.39791
H          5.29122       53.27009       70.92738
O          6.95711       55.51637       73.38087
H          7.31162       56.31841       73.84092
H          6.55913       54.97054       74.10460
O          7.51911       52.56852       72.21278
H          8.13793       51.90206       71.82171
H          7.11445       52.10780       72.99030

Ca 1.0



