%chk=apoCaM-CA-Ng.loop4.water4.frame695.chk
%nprocshared=20
%mem=10GB
%nosave
#b3lyp/svp scf=(tight,noincore,xqc) Test 
#IOP(5/87=12) Density=Current Pop=(MK,readradii) iop(6/33=2) iop(6/42=6)

apoCaM-CA-Ng.loop4.water4.frame695 

   -3  1 
C         95.60913       91.45732      107.54796
C         97.04368       91.70199      107.91501
O         97.75036       92.33053      107.14094
H         95.08834       92.43001      107.42247
H         95.55907       90.88903      106.59626
H         95.08133       90.87700      108.33434
N         97.53745       91.24782      109.10248
C         98.90483       91.45832      109.57005
C         99.20826       92.94422      109.63536
O        100.20601       93.38206      109.08018
C         99.92544       90.71559      108.67581
C         99.59566       89.26356      108.52863
O         99.54380       88.46182      109.60937
O         99.37685       88.80520      107.41905
H         96.90141       90.74143      109.73784
H         98.97589       91.04311      110.60054
H        100.94315       90.80932      109.11216
H         99.94525       91.17585      107.66353
N         98.32860       93.79735      110.23057
C         98.49551       95.24838      110.14984
C         99.60752       95.71625      111.08925
O         99.88141       95.00672      112.04748
C         97.14622       96.01319      110.36890
C         96.66364       96.13977      111.83879
C         96.03975       95.46852      109.44162
C         96.36185       94.83812      112.57709
H         97.46847       93.39257      110.62146
H         98.78137       95.46099      109.09715
H         97.30117       97.05872      110.04612
H         95.73857       96.75768      111.84274
H         97.42733       96.69719      112.42283
H         95.13021       96.10049      109.51599
H         96.38434       95.48400      108.38523
H         95.74853       94.42880      109.69183
H         95.98738       95.08146      113.59393
H         95.58031       94.25276      112.05139
H         97.28101       94.23178      112.70035
N        100.30295       96.88529      110.93399
C        100.18543       97.80154      109.79913
C        100.76462       97.20558      108.51493
O        100.62798       97.82568      107.46910
C        100.91972       99.12613      110.10361
C        100.40770       99.77319      111.36292
O         99.23601      100.10262      111.45697
O        101.24424       99.98753      112.39682
H        100.98274       97.12218      111.67461
H         99.12256       98.05478      109.64398
H        100.77917       99.83904      109.26195
H        102.00862       98.92810      110.21528
N        101.44493       96.02144      108.51952
C        102.02791       95.40771      107.34098
C        103.13789       96.25267      106.77429
O        104.03932       96.62017      107.51460
H        101.57900       95.51100      109.40117
H        101.23801       95.19713      106.58658
H        102.47635       94.43548      107.63849
N        103.15579       96.55870      105.44836
C        104.19615       97.36600      104.82079
C        103.62608       98.58938      104.11205
O        104.41226       99.33630      103.54570
C        105.07458       96.49752      103.87955
C        104.39200       95.76791      102.74636
O        103.05853       95.79300      102.57696
O        105.07112       95.10890      101.97546
H        102.40444       96.17768      104.85627
H        104.89579       97.76029      105.59067
H        105.58729       95.72840      104.49733
H        105.86341       97.14955      103.44326
N        102.28958       98.88876      104.10748
C        101.75075      100.04637      103.40391
C        101.85250       99.93106      101.88952
O        101.50535      100.88404      101.20826
H        101.62289       98.30456      104.63068
H        102.28418      100.95629      103.75481
H        100.67421      100.16332      103.65516
N        102.28786       98.78416      101.29470
C        102.43568       98.56124       99.86401
C        101.11320       98.65326       99.12476
O        101.07931       99.12714       97.99703
C        103.56250       99.43187       99.26730
C        104.91479       99.09716       99.91911
C        106.02629       99.94409       99.35942
N        106.76224      100.74029      100.17039
O        106.27533       99.90226       98.16376
H        102.52320       97.98250      101.88236
H        102.74620       97.49896       99.73512
H        103.32482      100.50829       99.40714
H        103.64593       99.22960       98.17712
H        105.15713       98.02740       99.73672
H        104.84853       99.25085      101.01476
H        106.57631      100.78287      101.18329
H        107.52783      101.31316       99.78598
N         99.98621       98.13595       99.68947
C         98.72268       97.96713       98.97933
C         98.23246       96.52100       99.06136
O         97.18824       96.24493       98.48711
C         97.63320       98.93891       99.51596
C         97.35584       98.75873      101.01493
C         97.99917      100.39689       99.21404
H        100.03322       97.82775      100.67177
H         98.85336       98.19263       97.89718
H         96.68647       98.73146       98.96752
H         98.25273       99.00104      101.62266
H         96.52896       99.42901      101.33203
H         97.04548       97.71616      101.22029
H         98.13456      100.53428       98.11937
H         97.17826      101.07053       99.54122
H         98.93460      100.69105       99.73323
N         98.89996       95.54683       99.75879
C         98.34531       94.21081       99.93588
C         99.42434       93.14970      100.10447
O        100.60809       93.45412      100.12743
C         97.36730       94.21546      101.14047
C         98.04811       94.49097      102.46633
N         97.68549       95.54776      103.22873
O         98.92133       93.73634      102.86852
H         99.77233       95.76329      100.25538
H         97.77795       93.92738       99.02161
H         96.85492       93.23456      101.21981
H         96.57577       94.97227      100.95175
H         96.93720       96.18689      102.92946
H         98.14849       95.72027      104.13360
N         99.03936       91.85265      100.24048
C         99.94344       90.73491      100.47810
C         99.11418       89.46876      100.49944
O         98.18085       89.39499      101.28920
C        100.67818       90.86749      101.83606
C        101.60745       89.69236      102.05524
C        101.35160       88.75705      103.07312
C        102.72796       89.51178      101.22574
C        102.19462       87.65458      103.24709
C        103.57261       88.41271      101.40615
C        103.30730       87.47798      102.41175
O        104.12441       86.41608      102.56323
H         98.03026       91.65351      100.16476
H        100.68990       90.69029       99.65520
H         99.91606       90.91587      102.64546
H        101.27600       91.80072      101.89142
H        100.49212       88.87006      103.72198
H        102.94755       90.22175      100.43823
H        101.98029       86.93639      104.02802
H        104.43170       88.28496      100.75926
H        103.96997       85.73917      103.23752
N         99.40393       88.42676       99.67486
C         98.59556       87.21936       99.64551
C         99.38106       86.07106      100.24772
O        100.38420       85.69055       99.66017
C         98.18993       86.88552       98.19584
C         97.24311       87.93149       97.59555
C         96.96873       87.62025       96.15198
O         97.97797       87.62615       95.25922
O         95.83399       87.37191       95.77770
H        100.23638       88.48056       99.06790
H         97.67182       87.37913      100.22034
H         97.67410       85.90002       98.16877
H         99.11287       86.81013       97.57765
H         97.68974       88.94624       97.65295
H         96.29274       87.92836       98.17505
N         99.03270       85.44873      101.41707
C         97.93172       85.83801      102.30878
C         96.56456       85.70852      101.65475
O         96.44639       85.16013      100.56706
C         97.95409       84.95415      103.57843
C         99.17632       85.22185      104.47508
C         99.34293       84.10884      105.47517
O         99.61837       82.98854      105.07622
O         99.20596       84.30934      106.80009
H         99.64033       84.66869      101.71360
H         98.07103       86.90415      102.59674
H         97.93956       83.89557      103.23596
H         97.05065       85.11402      104.20535
H         99.04468       86.20743      104.97383
H        100.11389       85.26424      103.88347
N         95.47856       86.25540      102.26979
C         94.15822       86.23630      101.68061
H         93.44149       86.76547      102.34536
H         94.17485       86.75812      100.69946
H         93.81556       85.19013      101.54348
H         95.59694       86.73452      103.17582
Ca        98.47708       86.21352      107.74553
O         96.14408       84.55321      108.88965
H         96.20489       83.63894      109.26457
H         95.58597       84.45249      108.07808
O        101.44271       86.17394      108.35707
H        101.72785       86.82461      107.66740
H        101.88677       85.32714      108.10057
O         96.14764       86.75171      106.12868
H         95.79522       87.65801      105.94567
H         95.36191       86.15424      106.05481
O         99.20731       84.85299      110.52294
H         98.78589       84.32624      111.24769
H        100.07262       84.40087      110.35774

Ca 1.0



