%chk=apoCaM-CA-Ng.loop3.water3.frame872.chk
%nprocshared=20
%mem=10GB
%nosave
#b3lyp/svp scf=(tight,noincore,xqc) Test 
#IOP(5/87=12) Density=Current Pop=(MK,readradii) iop(6/33=2) iop(6/42=6)

apoCaM-CA-Ng.loop3.water3.frame872 

   0  1 
C         37.75315      137.30551       -0.62886
C         37.46596      138.75702       -0.86178
O         37.04370      139.11697       -1.95139
H         38.81600      137.17373       -0.34019
H         37.10145      136.93257        0.19007
H         37.54731      136.71049       -1.54398
N         37.65133      139.65460        0.14590
C         37.29668      141.06689        0.01722
C         38.15468      141.74301       -1.05177
O         39.18366      141.19626       -1.42529
C         37.43273      141.76780        1.40359
C         36.38793      142.82249        1.67773
O         35.64209      142.68276        2.63394
O         36.19527      143.87945        0.87775
H         37.99711      139.29394        1.04855
H         36.23556      141.09096       -0.29355
H         38.46925      142.13445        1.55001
H         37.25248      141.01266        2.20120
N         37.78872      142.93974       -1.58367
C         38.58380      143.68670       -2.55633
C         39.11033      144.97011       -1.91305
O         40.25393      145.32223       -2.16556
C         37.74800      143.92853       -3.83445
C         38.53760      144.66530       -4.93503
C         37.73315      144.89520       -6.22918
C         37.41708      143.59956       -6.99779
N         36.72362      143.89375       -8.25338
H         36.89010      143.33901       -1.29110
H         39.47351      143.09532       -2.86958
H         36.83950      144.51278       -3.58772
H         37.43089      142.93471       -4.21557
H         39.46781      144.10760       -5.18097
H         38.82570      145.66441       -4.54426
H         38.34942      145.53871       -6.89488
H         36.79345      145.44161       -5.99563
H         36.77974      142.92742       -6.38547
H         38.36872      143.07025       -7.22767
H         35.80607      144.35626       -8.05848
H         37.31063      144.51667       -8.85509
H         36.54929      143.00030       -8.76831
N         38.36891      145.65971       -0.99676
C         38.83737      146.82389       -0.24785
C         38.97767      146.53484        1.25448
O         39.34179      147.44454        1.98727
C         37.89843      148.02445       -0.50376
C         36.43078      147.70707       -0.35243
O         35.65836      147.97700       -1.25670
O         35.95830      147.10253        0.74921
H         37.42394      145.32868       -0.77572
H         39.85593      147.12797       -0.57626
H         38.05825      148.38815       -1.54195
H         38.17677      148.85295        0.18186
N         38.78356      145.29123        1.77861
C         39.02308      144.95090        3.17551
C         38.04525      145.51594        4.19521
O         38.22978      145.17892        5.35755
H         38.55792      144.51322        1.14892
H         40.05959      145.24636        3.45072
H         38.96240      143.84511        3.27482
N         36.99918      146.34518        3.88587
C         36.04828      146.82737        4.89723
C         34.61140      146.45611        4.54468
O         34.37010      145.96073        3.45571
C         36.17227      148.36284        5.11429
C         35.37252      149.22519        4.15279
N         35.64583      149.27478        2.83238
O         34.44751      149.89344        4.59267
H         36.87223      146.63554        2.91360
H         36.29476      146.35640        5.87290
H         37.24142      148.66736        5.13434
H         35.76305      148.57583        6.12621
H         36.43532      148.75403        2.43939
H         35.06719      149.85283        2.20325
N         33.59286      146.73695        5.40471
C         32.18257      146.62107        5.05598
C         31.73974      145.22146        4.68583
O         31.84889      144.32273        5.50731
H         33.82224      147.13366        6.32898
H         31.97419      147.31868        4.21689
H         31.57095      146.95499        5.92125
N         31.20638      144.98025        3.45025
C         30.69527      143.68484        3.01306
C         31.73570      143.04509        2.05864
O         31.93514      143.96375        1.01689
C         29.35101      143.85412        2.23919
C         28.29520      144.71707        2.88297
C         27.69408      144.36816        4.10115
C         27.87101      145.88376        2.21736
C         26.68234      145.17554        4.64036
C         26.86686      146.68545        2.75636
C         26.26556      146.33369        3.97010
O         25.28616      147.09722        4.49526
H         31.17634      145.75249        2.76979
H         30.54193      143.01705        3.88933
H         28.91251      142.85484        2.02839
H         29.57848      144.30809        1.25123
H         27.99602      143.46941        4.62313
H         28.31130      146.17384        1.27056
H         26.21508      144.89795        5.57618
H         26.55402      147.57536        2.22365
H         24.96998      147.89964        4.05434
N         31.24212      141.75707        1.51728
C         32.20093      140.84734        0.83456
C         32.82671      141.51698       -0.38130
O         33.53808      142.49083       -0.22725
C         33.29289      140.24021        1.77074
C         34.19922      139.21896        1.01816
C         32.71150      139.58822        3.03742
C         33.49846      137.96365        0.48668
H         30.73453      141.22222        2.25855
H         31.58480      139.99819        0.47428
H         33.94301      141.06495        2.11166
H         35.02033      138.89695        1.69514
H         34.66297      139.71063        0.14758
H         32.19679      140.33803        3.67124
H         31.99261      138.78271        2.78255
H         33.53122      139.15876        3.65304
H         34.24549      137.32502       -0.03097
H         33.05313      137.37081        1.30981
H         32.71409      138.21757       -0.25308
N         32.65068      141.01816       -1.63238
C         33.13098      141.72851       -2.81919
C         32.13709      141.72304       -3.97367
O         32.32405      142.51130       -4.89130
C         34.49984      141.20140       -3.25789
O         34.42600      139.84989       -3.62019
H         32.20463      140.09807       -1.71248
H         33.26788      142.79949       -2.55607
H         35.24414      141.34732       -2.44364
H         34.87360      141.78798       -4.12480
H         34.45682      139.32951       -2.77514
N         31.08634      140.85383       -4.03568
C         30.13711      140.84380       -5.13812
C         29.24524      142.07760       -5.08938
O         29.16477      142.69054       -4.03319
C         29.25699      139.59421       -5.00993
H         30.96125      140.14123       -3.31010
H         30.70712      140.77746       -6.08531
H         28.50434      139.55284       -5.80218
H         29.88553      138.67947       -5.06873
H         28.71701      139.59465       -4.03852
N         28.46977      142.48903       -6.13673
C         28.55567      141.99032       -7.50872
C         27.33527      142.44097       -8.30227
O         27.06277      143.63415       -8.30704
C         29.80467      142.56750       -8.19242
H         27.82013      143.26955       -5.94913
H         28.63307      140.89332       -7.52322
H         29.75896      143.67791       -8.21325
H         30.73705      142.27982       -7.67232
H         29.86781      142.19530       -9.23785
N         26.55631      141.60006       -9.04515
C         26.78063      140.16867       -9.23222
C         26.48379      139.40013       -7.96454
O         27.30765      138.59214       -7.56347
C         25.91800      139.61030      -10.38411
C         26.24939      140.29471      -11.72416
C         25.50615      139.65991      -12.86148
O         24.64082      140.38753      -13.59286
O         25.69915      138.48798      -13.14388
H         25.77449      142.03474       -9.55924
H         27.83565      139.99270       -9.54455
H         24.83490      139.72305      -10.15919
H         26.14539      138.52405      -10.48045
H         27.33875      140.21899      -11.93243
H         25.98010      141.37038      -11.67836
N         25.31883      139.59971       -7.28609
C         24.99111      138.92674       -6.04457
H         24.04249      138.36465       -6.16668
H         25.78336      138.21883       -5.72126
H         24.85887      139.68473       -5.24340
H         24.63749      140.28327       -7.64834
Ca        34.10434      144.65421        1.09470
O         31.72065      145.73541       -1.24442
H         30.87411      145.27328       -1.02014
H         31.53082      146.69284       -1.08039
O         32.77519      147.67627        1.37419
H         32.90116      148.60113        1.04561
H         31.80063      147.60450        1.52976
O         34.59385      145.12015       -2.19191
H         34.23739      144.92296       -3.09366
H         35.28970      145.80170       -2.35673

Ca 1.0



