%chk=apoCaM-CA-Ng.loop1.water4.frame231.chk
%nprocshared=20
%mem=10GB
%nosave
#b3lyp/svp scf=(tight,noincore,xqc) Test 
#IOP(5/87=12) Density=Current Pop=(MK,readradii) iop(6/33=2) iop(6/42=6)

apoCaM-CA-Ng.loop1.water4.frame231 

   0  1 
C         41.35269       14.39623       71.32360
C         40.36660       13.43064       71.89897
O         40.04690       13.51856       73.07729
H         42.27175       13.86648       71.00227
H         40.88561       14.88037       70.43842
H         41.60427       15.18912       72.05803
N         39.78852       12.51216       71.07954
C         38.63099       11.73696       71.47998
C         38.99067       10.40083       72.07668
O         38.08739        9.77741       72.56132
C         37.70512       11.47501       70.27749
C         37.21522       12.75007       69.65306
O         37.94806       13.41030       68.93398
O         35.96165       13.17619       69.89554
H         40.04512       12.53110       70.08267
H         38.03664       12.32443       72.22687
H         36.81692       10.89889       70.61902
H         38.23598       10.85320       69.52265
N         40.21598        9.82794       72.06424
C         40.39924        8.49047       72.64937
C         40.79853        8.59097       74.09889
O         41.56295        9.49527       74.40570
C         41.47420        7.70692       71.90507
C         40.99522        7.25626       70.52308
C         42.10737        6.54938       69.74869
C         43.19761        7.54938       69.33568
N         44.15674        6.94384       68.41814
H         40.99733       10.30887       71.59444
H         39.46497        7.91454       72.57906
H         41.72199        6.78396       72.47337
H         42.37962        8.34066       71.85854
H         40.61981        8.11316       69.92226
H         40.15561        6.54367       70.65853
H         41.64857        6.12729       68.82915
H         42.53456        5.71089       70.34456
H         43.74165        7.93712       70.22323
H         42.70644        8.40804       68.82654
H         44.71704        7.70678       67.97427
H         44.79492        6.30382       68.94241
H         43.66099        6.41645       67.66337
N         40.43861        7.69049       75.07094
C         39.53197        6.53237       75.02645
C         39.64681        5.57794       73.84697
O         38.89530        5.72188       72.91824
C         38.09098        6.92425       75.35816
C         38.03970        7.57797       76.70274
O         38.74366        7.07652       77.74675
O         37.36748        8.58252       76.84771
H         40.82387        7.88032       76.00788
H         39.78650        5.90285       75.89958
H         37.46411        6.00973       75.39355
H         37.68567        7.62081       74.59453
N         40.46069        4.49644       73.82277
C         41.30363        4.14463       74.93166
C         42.46561        3.30533       74.50933
O         42.65477        3.06531       73.32432
H         40.42644        3.87588       72.99558
H         40.69029        3.59691       75.67702
H         41.73999        5.06566       75.36892
N         43.33848        2.82434       75.42594
C         43.20063        3.02642       76.87040
C         42.29228        1.97982       77.50188
O         41.98529        0.97892       76.86814
C         44.58161        3.06221       77.55318
C         45.34931        1.76442       77.43543
O         45.69257        1.08913       78.54530
O         45.69226        1.32610       76.34957
H         44.11753        2.28076       75.04598
H         42.74294        4.02383       77.05725
H         44.44246        3.29420       78.63192
H         45.18040        3.88651       77.10816
N         41.81358        2.17087       78.76835
C         40.95896        1.22061       79.47104
C         39.59748        1.00224       78.83485
O         38.90392        0.09231       79.26997
H         42.08215        3.02982       79.27021
H         40.77086        1.59167       80.50353
H         41.49527        0.25138       79.55408
N         39.13547        1.79640       77.82491
C         37.80587        1.66250       77.23910
C         37.84209        0.94179       75.91793
O         38.83545        0.97875       75.20444
C         37.17319        3.04658       76.98161
C         36.94409        3.79811       78.26446
O         35.92902        2.89586       76.37433
H         39.71512        2.58155       77.50761
H         37.14119        1.08579       77.92407
H         37.85811        3.62123       76.30605
H         35.67651        3.79315       76.04991
H         37.91221        3.92426       78.74308
H         36.48010        4.78382       78.03595
H         36.27052        3.21053       78.92112
N         36.69102        0.35253       75.49852
C         36.51618       -0.30968       74.22394
C         36.03056        0.69127       73.14657
O         36.25195        0.40166       71.97885
C         35.63594       -1.58335       74.47648
C         36.38391       -2.55740       75.44857
C         35.23911       -2.31292       73.20099
C         35.67991       -3.89841       75.70765
H         35.88350        0.35713       76.14198
H         37.51262       -0.64847       73.85817
H         34.68236       -1.25036       74.94930
H         36.52952       -2.05394       76.42849
H         37.39050       -2.79775       75.04088
H         36.13522       -2.75361       72.72270
H         34.51558       -3.11455       73.46519
H         34.70526       -1.63351       72.50895
H         34.62787       -3.74811       76.02545
H         35.70403       -4.53597       74.79711
H         36.21829       -4.45966       76.50137
N         35.40030        1.88224       73.43705
C         35.01883        2.87261       72.41222
C         35.38595        4.31346       72.80232
O         35.79452        4.56127       73.92212
C         33.50508        2.77708       72.08181
C         33.09122        1.36366       71.65363
O         33.20353        3.65215       71.02747
H         35.12636        2.06656       74.40300
H         35.59180        2.66423       71.48316
H         32.91583        3.07127       72.98199
H         32.21825        3.77117       71.02095
H         32.10408        1.40468       71.14597
H         33.82175        0.93218       70.93703
H         32.98950        0.69952       72.53624
N         35.28284        5.32342       71.88683
C         35.78080        6.67180       72.12396
C         34.72326        7.62674       72.66928
O         33.54231        7.31550       72.69901
C         36.45085        7.24654       70.82605
C         35.47139        7.51329       69.68829
O         37.39681        6.36945       70.28814
H         35.03789        5.06944       70.92585
H         36.56384        6.61683       72.90691
H         36.94940        8.20490       71.07343
H         37.95709        6.06351       71.01841
H         36.02756        7.99049       68.85211
H         35.06321        6.55698       69.30331
H         34.64322        8.17871       69.99394
N         35.13511        8.85274       73.08870
C         34.27941        9.94564       73.53910
C         34.89174       10.72750       74.72632
O         34.15168       11.33819       75.48248
C         33.94568       10.87917       72.32469
C         32.64832       11.67798       72.59282
C         32.06062       12.55290       71.44915
C         30.79799       13.29310       71.97212
N         30.00135       13.90859       70.90431
H         36.12145        8.99451       72.99276
H         33.34733        9.47120       73.90316
H         33.77937       10.24463       71.42523
H         34.81097       11.54614       72.09944
H         32.82188       12.31243       73.48004
H         31.86544       10.92157       72.82413
H         31.77304       11.89115       70.60204
H         32.78774       13.30541       71.07287
H         31.10325       14.07527       72.70513
H         30.14439       12.57041       72.50692
H         29.74503       13.19495       70.18415
H         29.11046       14.27725       71.31572
H         30.51341       14.70126       70.45662
N         36.24523       10.79631       74.90261
C         36.98166       11.54241       75.90564
C         36.62898       12.99458       75.80917
O         36.62705       13.54413       74.71529
C         38.51237       11.34475       75.65896
C         39.44968       12.11039       76.60584
C         39.17111       11.80664       78.03869
O         39.28532       10.55152       78.48638
O         38.82914       12.69406       78.80088
H         36.83863       10.31941       74.25586
H         36.73824       11.14750       76.91563
H         38.76452       11.65844       74.62461
H         38.74193       10.26196       75.73589
H         39.35147       13.20111       76.43456
H         40.50604       11.82864       76.38778
N         36.35516       13.68671       76.94321
C         36.06155       15.09761       76.95318
H         35.08708       15.25930       77.45485
H         36.86354       15.61859       77.51508
H         36.01514       15.52226       75.92883
H         36.39984       13.20209       77.85238
Ca        39.47059        8.51046       79.32093
O         36.78566        7.94025       79.81962
H         35.98312        8.16126       80.34658
H         36.44473        7.90046       78.89645
O         38.72362        5.90365       80.23698
H         39.17874        5.30201       79.60151
H         38.01337        5.37092       80.67580
O         38.25968       10.59640       81.36750
H         39.10529       10.87095       81.80121
H         38.18429       11.19667       80.58889
O         39.04489        7.72759       82.48380
H         39.73944        7.91071       83.16193
H         39.08997        6.74739       82.38009

Ca 1.0



