%chk=apoCaM-CA-Ng.loop4.water5.frame795.chk
%nprocshared=20
%mem=10GB
%nosave
#b3lyp/svp scf=(tight,noincore,xqc) Test 
#IOP(5/87=12) Density=Current Pop=(MK,readradii) iop(6/33=2) iop(6/42=6)

apoCaM-CA-Ng.loop4.water5.frame795 

   -3  1 
C         -7.65023      -10.80718      103.25996
C         -8.47865      -11.41996      104.34847
O         -9.55497      -11.92607      104.06628
H         -6.67277      -11.33225      103.20292
H         -8.16019      -10.89878      102.27719
H         -7.47616       -9.73319      103.47883
N         -8.01467      -11.42329      105.63263
C         -8.70821      -12.01161      106.77844
C         -8.84988      -13.53525      106.68741
O         -9.42431      -14.10756      107.60453
C        -10.10964      -11.37879      107.00247
C        -10.14944       -9.85218      107.13913
O         -9.81192       -9.21548      105.93956
O         -9.26823       -9.40114      108.12850
H         -7.10565      -10.97129      105.81892
H         -8.09739      -11.80269      107.68583
H        -10.52916      -11.79563      107.94392
H        -10.80454      -11.66658      106.18707
N         -8.38359      -14.26401      105.62666
C         -8.63434      -15.70037      105.48284
C         -8.01038      -16.50647      106.62233
O         -7.12220      -15.98962      107.28591
C         -8.20965      -16.22548      104.06833
C         -6.70123      -16.00718      103.76812
C         -9.11713      -15.58614      102.99876
C         -6.25124      -16.63600      102.44641
H         -7.88802      -13.78106      104.87343
H         -9.73586      -15.81950      105.57893
H         -8.38755      -17.31738      104.02099
H         -6.10246      -16.47508      104.57800
H         -6.44778      -14.92817      103.73131
H        -10.18378      -15.78719      103.23813
H         -8.97071      -14.48799      102.93976
H         -8.93144      -16.02540      102.00082
H         -5.16059      -16.47686      102.31407
H         -6.45403      -17.72767      102.44965
H         -6.75985      -16.16912      101.57895
N         -8.47173      -17.74099      107.00083
C         -9.56227      -18.47526      106.35829
C        -10.82238      -18.38891      107.20571
O        -10.77398      -17.86255      108.31029
C         -9.08897      -19.92013      106.08596
C        -10.06237      -20.74647      105.29565
O        -10.57934      -21.87153      105.82546
O        -10.37611      -20.41215      104.16397
H         -8.05498      -18.16610      107.84509
H         -9.83696      -18.00568      105.40144
H         -8.88199      -20.41932      107.05823
H         -8.13970      -19.88479      105.50852
N        -12.02210      -18.78621      106.69410
C        -13.27037      -18.53974      107.38982
C        -14.44965      -18.91226      106.52014
O        -14.75992      -20.08688      106.38707
H        -12.06000      -19.17955      105.74338
H        -13.31803      -17.44846      107.60255
H        -13.31463      -19.07143      108.36415
N        -15.11771      -17.93049      105.85477
C        -16.28733      -18.12819      105.00451
C        -16.13498      -19.22817      103.96240
O        -17.07701      -19.99512      103.80930
C        -16.73775      -16.78736      104.36327
C        -15.73028      -16.12445      103.44920
O        -14.50919      -15.77879      103.89875
O        -16.04349      -15.83028      102.30701
H        -14.77273      -16.96777      105.97579
H        -17.13117      -18.44076      105.66072
H        -16.96308      -16.07212      105.18238
H        -17.68334      -16.95903      103.80074
N        -15.00588      -19.39395      103.21404
C        -14.93945      -20.40500      102.16202
C        -15.76780      -20.01465      100.94405
O        -15.91633      -20.82286      100.03967
H        -14.18209      -18.79954      103.38950
H        -15.26742      -21.38414      102.57520
H        -13.89047      -20.52197      101.81401
N        -16.25060      -18.74556      100.82190
C        -16.93817      -18.17742       99.67329
C        -16.10519      -18.25354       98.40518
O        -16.66356      -18.33305       97.32063
C        -18.39141      -18.67296       99.52772
C        -19.17714      -18.43536      100.83116
C        -20.66454      -18.58380      100.63881
N        -21.20934      -19.74726      100.21771
O        -21.39181      -17.62890      100.87080
H        -16.05336      -18.07905      101.56935
H        -17.02557      -17.08546       99.87528
H        -18.42959      -19.74706       99.24500
H        -18.86418      -18.07640       98.71577
H        -18.98639      -17.39802      101.18648
H        -18.82129      -19.13726      101.61620
H        -20.61997      -20.56629      100.01477
H        -22.22995      -19.82424      100.09103
N        -14.74373      -18.19052       98.48036
C        -13.86799      -18.14911       97.31419
C        -12.91174      -16.95779       97.35696
O        -12.19585      -16.78823       96.37651
C        -13.07576      -19.48388       97.17282
C        -12.26453      -19.84093       98.43166
C        -14.01733      -20.64133       96.81241
H        -14.30399      -18.18761       99.41006
H        -14.47007      -18.02066       96.38801
H        -12.36472      -19.38044       96.32276
H        -12.93140      -20.02726       99.30003
H        -11.67740      -20.76757       98.25510
H        -11.55558      -19.02715       98.68875
H        -14.55405      -20.41284       95.86655
H        -13.43595      -21.57520       96.65578
H        -14.76417      -20.81712       97.61293
N        -12.78933      -16.12390       98.43822
C        -11.77790      -15.07131       98.50812
C        -12.39547      -13.74559       98.93954
O        -13.45317      -13.75635       99.55918
C        -10.70685      -15.54410       99.51902
C         -9.36804      -14.85745       99.39016
N         -8.26775      -15.57911       99.06039
O         -9.26299      -13.65942       99.59842
H        -13.35192      -16.28526       99.28530
H        -11.29423      -14.95329       97.51375
H        -10.53039      -16.62532       99.32978
H        -11.09514      -15.46122      100.55832
H         -8.32812      -16.59556       98.89464
H         -7.34630      -15.12737       98.97272
N        -11.77629      -12.55955       98.67670
C        -12.24657      -11.28166       99.21364
C        -11.42912      -10.14025       98.63236
O        -10.20796      -10.20364       98.71140
C        -12.06097      -11.26455      100.75237
C        -12.70225      -10.05904      101.39867
C        -11.91617       -9.02268      101.92523
C        -14.10155       -9.97871      101.50363
C        -12.52070       -7.92315      102.54346
C        -14.70276       -8.88617      102.13714
C        -13.91611       -7.85456      102.65843
O        -14.50978       -6.80862      103.26906
H        -10.92950      -12.57513       98.08642
H        -13.32164      -11.14807       98.95712
H        -10.96928      -11.29296      100.96903
H        -12.49608      -12.16194      101.23759
H        -10.83819       -9.06461      101.84988
H        -14.72564      -10.77352      101.11475
H        -11.90641       -7.12841      102.93890
H        -15.78107       -8.84430      102.22834
H        -14.00255       -6.07766      103.65041
N        -12.02556       -9.04017       98.08755
C        -11.25887       -7.91522       97.56462
C        -11.46089       -6.70915       98.46822
O        -12.55831       -6.16751       98.46018
C        -11.69821       -7.61633       96.11292
C        -10.92160       -6.45456       95.47235
C        -11.41500       -6.19139       94.07718
O        -10.65592       -6.28972       93.12656
O        -12.69670       -5.83045       93.86993
H        -13.05601       -8.97542       98.08843
H        -10.19254       -8.18047       97.53277
H        -12.78503       -7.37388       96.10707
H        -11.54818       -8.53017       95.49702
H         -9.83834       -6.70409       95.45121
H        -11.05836       -5.52408       96.06352
N        -10.50004       -6.21592       99.31020
C         -9.18762       -6.81401       99.57124
C         -8.26984       -6.76973       98.36641
O         -8.04352       -5.69900       97.81986
C         -8.46040       -6.09436      100.73139
C         -9.19643       -6.22873      102.07171
C         -8.40546       -5.60532      103.18280
O         -7.97865       -6.36444      104.20907
O         -8.14855       -4.41210      103.16560
H        -10.76292       -5.38601       99.86397
H         -9.33130       -7.86810       99.89648
H         -8.31208       -5.02007      100.48226
H         -7.45869       -6.56628      100.85642
H         -9.33509       -7.30608      102.30109
H        -10.19061       -5.74031      102.02745
N         -7.65192       -7.91193       97.94769
C         -6.69960       -7.96172       96.85873
H         -5.72179       -8.31675       97.24972
H         -7.05678       -8.67699       96.08958
H         -6.54662       -6.97088       96.38368
H         -7.83710       -8.79627       98.44475
Ca        -8.10004       -7.99219      106.78084
O         -6.43870       -5.05937      106.65638
H         -5.51867       -5.42081      106.60196
H         -6.57477       -4.59380      105.79340
O        -11.32040       -6.37748      105.43203
H        -12.15223       -6.85453      105.67924
H        -11.63171       -5.56577      104.95796
O        -11.18205       -6.66735      108.54272
H        -11.90873       -7.28999      108.28838
H        -11.62834       -5.78731      108.62484
O         -9.50194       -4.31512      106.95935
H        -10.17100       -3.91426      107.56923
H         -9.28552       -3.59164      106.31900
O         -7.62363       -6.31702      109.27486
H         -7.12309       -6.84151      109.94910
H         -7.34435       -5.37987      109.42956

Ca 1.0



