%chk=apoCaM-CA-Ng.loop1.water2.frame1086.chk
%nprocshared=20
%mem=10GB
%nosave
#b3lyp/svp scf=(tight,noincore,xqc) Test 
#IOP(5/87=12) Density=Current Pop=(MK,readradii) iop(6/33=2) iop(6/42=6)

apoCaM-CA-Ng.loop1.water2.frame1086 

   0  1 
C         42.85406       50.08369       40.09167
C         42.50045       50.37580       41.51975
O         41.55996       51.11989       41.75977
H         43.90427       50.38516       39.89208
H         42.74230       48.99642       39.89990
H         42.18715       50.64000       39.39836
N         43.24192       49.83521       42.52814
C         42.97325       50.08078       43.94366
C         44.05035       50.98087       44.51251
O         44.71007       50.64731       45.48758
C         42.78496       48.74540       44.70305
C         43.97224       47.80674       44.71340
O         45.02985       48.09778       44.17690
O         43.86079       46.62018       45.33924
H         44.05533       49.25880       42.26768
H         42.02673       50.65104       44.05767
H         41.92984       48.20755       44.24067
H         42.51833       48.97141       45.75781
N         44.27890       52.16942       43.89594
C         45.31909       53.10295       44.29372
C         44.98802       53.79463       45.61017
O         45.83658       53.73963       46.48926
C         45.68261       54.07582       43.14765
C         46.06643       53.26234       41.88871
C         46.72445       54.08728       40.78420
C         46.97435       53.18640       39.56095
N         47.69319       53.89838       38.50808
H         43.71819       52.38590       43.05979
H         46.26163       52.52441       44.44107
H         46.56292       54.66969       43.48075
H         44.85678       54.77873       42.90880
H         45.15728       52.77919       41.47354
H         46.78788       52.46308       42.17079
H         47.69082       54.48598       41.16422
H         46.07073       54.93635       40.49146
H         45.99557       52.83145       39.16509
H         47.56896       52.29349       39.85999
H         47.79595       53.26536       37.68168
H         47.16356       54.75229       38.22040
H         48.64550       54.16466       38.84861
N         43.79779       54.40711       45.90574
C         42.61016       54.48714       45.05288
C         41.56783       53.49170       45.51803
O         41.79241       52.81299       46.50740
C         42.07192       55.93396       44.98735
C         42.00053       56.67767       46.30542
O         41.17982       56.37411       47.34169
O         42.74446       57.63562       46.43866
H         43.69557       54.76098       46.87052
H         42.84504       54.19125       44.01646
H         41.09758       55.97959       44.45938
H         42.80099       56.49340       44.35838
N         40.44023       53.26793       44.78188
C         39.49420       52.21608       45.12695
C         38.46913       52.67385       46.13201
O         38.38234       53.86021       46.40017
H         40.31336       53.77140       43.89072
H         40.04633       51.32280       45.48978
H         38.93181       51.90775       44.22014
N         37.63498       51.76732       46.71823
C         36.54416       52.13280       47.62534
C         35.23648       51.49022       47.16772
O         35.28201       50.62279       46.30638
C         36.92554       51.71643       49.06794
C         38.06928       52.57264       49.51315
O         39.12328       52.06216       49.84809
O         37.94665       53.91640       49.42270
H         37.79432       50.76651       46.52464
H         36.39351       53.23026       47.59726
H         37.18556       50.63516       49.10644
H         36.11711       51.87095       49.79283
N         34.00928       51.84056       47.66486
C         33.75142       52.92570       48.60184
C         33.99997       54.28432       47.99406
O         34.23821       54.38562       46.79786
H         33.18751       51.31287       47.33139
H         34.32517       52.80293       49.52848
H         32.68236       52.90495       48.90385
N         33.91842       55.39463       48.77974
C         34.02413       56.74983       48.24664
C         35.36793       56.99118       47.57205
O         36.33039       56.30466       47.88417
C         33.74864       57.78409       49.36651
C         33.56749       59.20781       48.83252
O         34.78848       57.74661       50.31077
H         33.72291       55.26359       49.78485
H         33.22163       56.84083       47.48091
H         32.78920       57.49023       49.85221
H         34.46156       58.20720       51.12673
H         32.74721       59.23082       48.08454
H         33.28595       59.88288       49.66719
H         34.50094       59.59039       48.37328
N         35.46571       57.92484       46.57904
C         36.66612       58.22470       45.80249
C         37.72887       58.87000       46.68827
O         38.19561       58.24690       47.63150
C         37.21207       56.96884       45.04880
C         36.08277       56.24242       44.26550
C         38.34566       57.38454       44.08548
C         36.48788       54.85416       43.76178
H         34.61200       58.44024       46.31605
H         36.36559       58.96052       45.02176
H         37.62225       56.26595       45.80066
H         35.73970       56.87306       43.41740
H         35.21205       56.06667       44.92858
H         39.16606       57.89823       44.62753
H         38.79136       56.50907       43.57455
H         37.95348       58.07847       43.30892
H         36.72772       54.20310       44.62275
H         35.63553       54.38679       43.22706
H         37.35438       54.88602       43.07350
N         38.18888       60.12168       46.40394
C         39.26842       60.76255       47.15559
C         38.88461       61.18446       48.57258
O         39.76659       61.65612       49.27790
C         39.81275       62.00214       46.38487
C         38.79147       63.14578       46.26080
O         40.22397       61.62511       45.09641
H         37.81522       60.59070       45.56613
H         40.10679       60.03332       47.22519
H         40.68798       62.42163       46.93461
H         41.03754       61.06680       45.20628
H         39.25514       64.00201       45.72610
H         37.89203       62.83482       45.69169
H         38.47142       63.50442       47.26175
N         37.60214       61.13240       49.03959
C         37.22611       61.72471       50.32284
C         37.89300       61.00927       51.48815
O         37.51869       59.88434       51.78612
C         35.67965       61.72130       50.48513
C         35.18876       62.36638       51.78817
O         35.06503       62.35169       49.38793
H         36.86029       60.75770       48.43122
H         37.55935       62.78682       50.30569
H         35.34461       60.66394       50.49649
H         35.39787       63.28657       49.35197
H         34.07978       62.30385       51.83420
H         35.59695       61.83553       52.67320
H         35.48843       63.43413       51.83340
N         38.88746       61.62170       52.20065
C         39.49238       61.06842       53.40990
C         40.03314       59.67332       53.17548
O         39.52519       58.72304       53.75648
C         38.49939       61.15179       54.59272
C         38.17078       62.62441       54.89030
C         37.35015       62.80713       56.16936
C         37.17054       64.30645       56.45767
N         36.46279       64.52810       57.71642
H         39.22583       62.54370       51.88669
H         40.36172       61.69769       53.70655
H         38.99648       60.71992       55.48997
H         37.57091       60.57368       54.39277
H         37.62806       63.07351       54.02974
H         39.13037       63.17018       55.02841
H         37.89644       62.34219       57.01921
H         36.35975       62.31249       56.06481
H         36.60769       64.78293       55.62423
H         38.17143       64.79057       56.52311
H         35.50767       64.10588       57.67345
H         37.00328       64.11000       58.50853
H         36.37521       65.55779       57.87799
N         41.09467       59.48855       52.33996
C         41.62516       58.16849       52.01601
C         41.55256       57.94213       50.51805
O         40.81305       57.04838       50.13826
C         43.02872       57.90106       52.60484
C         43.02517       58.01975       54.13562
C         44.35678       57.63183       54.71055
O         44.78871       56.50065       54.55234
O         45.07389       58.52479       55.41837
H         41.52125       60.32396       51.91826
H         40.98089       57.38822       52.48232
H         43.81059       58.57041       52.20827
H         43.31274       56.86080       52.32800
H         42.24884       57.35263       54.56890
H         42.79022       59.06814       54.42107
N         42.23027       58.65474       49.56783
C         43.17566       59.73540       49.75636
H         44.15657       59.42913       49.33289
H         42.82006       60.63024       49.20565
H         43.33133       60.03116       50.79992
H         42.06160       58.40008       48.58991
Ca        39.53080       55.19620       48.39440
O         41.64009       53.45104       49.25484
H         40.91803       53.11283       48.67049
H         41.18995       53.61493       50.12010
O         38.04724       56.88448       50.89017
H         37.37433       57.50959       50.52332
H         38.36251       57.31840       51.72190

Ca 1.0



