%chk=apoCaM-CA-Ng.loop3.water3.frame925.chk
%nprocshared=20
%mem=10GB
%nosave
#b3lyp/svp scf=(tight,noincore,xqc) Test 
#IOP(5/87=12) Density=Current Pop=(MK,readradii) iop(6/33=2) iop(6/42=6)

apoCaM-CA-Ng.loop3.water3.frame925 

   0  1 
C        -21.00508        3.42865       12.15504
C        -22.18727        2.50737       12.17173
O        -22.43274        1.85761       11.16532
H        -20.08975        2.83965       11.93211
H        -21.14109        4.19966       11.36889
H        -20.86856        3.93169       13.13477
N        -22.96254        2.38984       13.28892
C        -24.07188        1.45396       13.38790
C        -25.37750        2.20524       13.61152
O        -25.50789        2.88587       14.61917
C        -23.77181        0.46160       14.53278
C        -24.75096       -0.66633       14.61011
O        -24.59834       -1.63133       15.53587
O        -25.68468       -0.72118       13.83402
H        -22.73884        2.96346       14.11664
H        -24.15223        0.86937       12.44849
H        -23.74783        0.99619       15.50649
H        -22.77467        0.01073       14.36559
N        -26.38346        2.14227       12.68659
C        -27.63362        2.89202       12.82837
C        -28.49573        2.42584       13.99749
O        -29.36467        3.18437       14.40927
C        -28.45860        2.88158       11.51732
C        -28.98794        1.49214       11.10359
C        -29.77665        1.58583        9.78859
C        -30.29898        0.21317        9.34140
N        -31.05575        0.32382        8.09355
H        -26.22014        1.59958       11.82698
H        -27.34579        3.95161       13.01206
H        -27.81998        3.28452       10.70037
H        -29.32592        3.56815       11.63776
H        -29.65358        1.09027       11.89776
H        -28.14423        0.78613       10.96651
H        -29.11684        1.99498        8.99209
H        -30.63798        2.27567        9.92742
H        -30.95722       -0.21165       10.13160
H        -29.44093       -0.47842        9.18741
H        -31.39512       -0.62417        7.81149
H        -31.88177        0.95158        8.22764
H        -30.44547        0.70330        7.33343
N        -28.36825        1.17651       14.53123
C        -29.19529        0.66129       15.62230
C        -28.37960        0.22305       16.83460
O        -28.98801       -0.16062       17.82256
C        -30.12292       -0.47078       15.10804
C        -29.44617       -1.68422       14.50722
O        -30.13046       -2.55752       14.00192
O        -28.10547       -1.79705       14.49227
H        -27.68153        0.54643       14.10744
H        -29.86909        1.46620       15.99241
H        -30.76522       -0.02613       14.31682
H        -30.78934       -0.80474       15.93298
N        -27.01360        0.28392       16.86313
C        -26.23973       -0.03667       18.05286
C        -26.35009       -1.47332       18.52802
O        -25.87805       -1.72900       19.62701
H        -26.49847        0.63894       16.05133
H        -26.59447        0.62819       18.86987
H        -25.16438        0.18944       17.88095
N        -26.93037       -2.46508       17.78677
C        -27.12767       -3.81719       18.29876
C        -26.28500       -4.83251       17.55686
O        -26.50380       -5.05309       16.37385
C        -28.62087       -4.20136       18.18741
C        -28.88332       -5.63312       18.60390
N        -28.60780       -6.05910       19.85799
O        -29.34046       -6.42009       17.78766
H        -27.25558       -2.26199       16.83241
H        -26.84714       -3.86522       19.37235
H        -28.94428       -4.07918       17.12824
H        -29.23304       -3.51572       18.81055
H        -28.22144       -5.41563       20.56254
H        -28.77851       -7.04072       20.12364
N        -25.35501       -5.55918       18.24233
C        -24.71494       -6.74294       17.70572
C        -23.96929       -6.49132       16.42502
O        -22.99016       -5.75858       16.42467
H        -25.15998       -5.32945       19.22873
H        -25.50955       -7.50064       17.53546
H        -24.01628       -7.16936       18.45808
N        -24.38776       -7.11013       15.28452
C        -23.70247       -7.00058       14.00534
C        -23.67981       -5.56775       13.49888
O        -24.29932       -4.68988       14.08257
C        -24.36554       -7.91462       12.93901
C        -24.23770       -9.39142       13.23916
C        -25.18151      -10.06241       14.03814
C        -23.17552      -10.12395       12.68082
C        -25.05386      -11.43266       14.28445
C        -23.05132      -11.49398       12.92691
C        -23.98701      -12.15304       13.72955
O        -23.85461      -13.47564       13.95505
H        -25.22412       -7.70296       15.34481
H        -22.64782       -7.32740       14.14605
H        -23.87914       -7.74217       11.95621
H        -25.43337       -7.65013       12.78754
H        -26.02544       -9.53818       14.46410
H        -22.44143       -9.63380       12.05313
H        -25.78859      -11.93409       14.90190
H        -22.22752      -12.04396       12.48980
H        -24.48254      -13.96988       14.50107
N        -22.93942       -5.27863       12.39318
C        -22.78689       -3.96445       11.79025
C        -24.16379       -3.46860       11.26238
O        -24.72566       -2.56542       12.16813
C        -22.04781       -2.96919       12.75294
C        -21.77133       -1.57522       12.12411
C        -20.74502       -3.58325       13.29861
C        -20.84987       -1.57264       10.90406
H        -22.41968       -6.04762       11.94292
H        -22.12336       -4.12641       10.91201
H        -22.69382       -2.78945       13.63907
H        -21.30080       -0.92790       12.89462
H        -22.72805       -1.09636       11.83475
H        -20.25605       -2.87805       14.00459
H        -20.95701       -4.51614       13.86211
H        -20.03835       -3.82879       12.48042
H        -19.84789       -1.97178       11.16036
H        -21.28439       -2.15934       10.07123
H        -20.71803       -0.52626       10.55597
N        -24.00685       -2.84806        9.93585
C        -25.23978       -2.19915        9.44372
C        -25.38500       -2.40656        7.94830
O        -24.53111       -1.94702        7.20044
C        -25.17479       -0.69074        9.73564
O        -26.31648       -0.05199        9.23274
H        -23.74813       -3.63904        9.29898
H        -26.13284       -2.63408        9.94590
H        -24.25956       -0.27331        9.25137
H        -25.11180       -0.51431       10.82612
H        -26.10339        0.91731        9.20459
N        -26.43924       -3.11555        7.44958
C        -26.63517       -3.35005        6.02441
C        -28.03712       -2.91469        5.58507
O        -28.86474       -2.66350        6.45103
C        -26.43921       -4.84872        5.76451
H        -27.11264       -3.53661        8.10914
H        -25.87046       -2.78401        5.45987
H        -26.51961       -5.09976        4.69426
H        -25.42849       -5.16076        6.10302
H        -27.19583       -5.44071        6.32497
N        -28.43012       -2.83313        4.27460
C        -27.53518       -2.92022        3.12302
C        -27.56928       -4.29967        2.49235
O        -28.49059       -5.05206        2.77666
C        -27.91926       -1.83592        2.10450
H        -29.42282       -2.61797        4.08669
H        -26.50414       -2.73152        3.46009
H        -28.96132       -1.99776        1.75204
H        -27.86036       -0.83361        2.57926
H        -27.26056       -1.83905        1.21421
N        -26.55104       -4.77776        1.71184
C        -25.34338       -4.04209        1.34404
C        -24.15778       -4.59891        2.10635
O        -23.54519       -3.85582        2.86203
C        -25.13514       -4.11687       -0.18196
C        -23.88260       -3.35516       -0.64476
C        -23.69307       -3.49368       -2.12727
O        -23.68743       -2.50523       -2.84293
O        -23.50943       -4.71193       -2.67269
H        -26.61390       -5.76079        1.40276
H        -25.41895       -2.97238        1.61078
H        -26.02672       -3.68332       -0.68677
H        -25.05064       -5.18230       -0.48804
H        -22.97656       -3.76295       -0.14811
H        -23.98212       -2.28161       -0.37089
N        -23.76470       -5.89251        1.95684
C        -22.62092       -6.42585        2.66379
H        -21.70727       -5.85583        2.38866
H        -22.78443       -6.35394        3.76022
H        -22.47005       -7.49146        2.39202
H        -24.28164       -6.51598        1.32002
Ca       -26.75114       -3.06238       13.15444
O        -28.59343       -5.65126       14.45031
H        -28.88110       -4.86569       13.92228
H        -29.40588       -6.21158       14.52381
O        -26.63084       -5.63312       11.65442
H        -26.79076       -5.10257       10.83461
H        -27.48584       -6.10383       11.81957
O        -28.95581       -2.53374       11.07629
H        -28.47137       -3.20998       10.54076
H        -29.68576       -3.04419       11.50698

Ca 1.0



