%chk=apoCaM-CA-Ng.loop2.water4.frame1276.chk
%nprocshared=20
%mem=10GB
%nosave
#b3lyp/svp scf=(tight,noincore,xqc) Test 
#IOP(5/87=12) Density=Current Pop=(MK,readradii) iop(6/33=2) iop(6/42=6)

apoCaM-CA-Ng.loop2.water4.frame1276 

   -2  1 
C         63.89930       44.25753       14.87887
C         63.37389       45.12786       13.76330
O         63.40092       44.66722       12.63176
H         64.72995       44.76685       15.41036
H         63.09947       43.97191       15.58390
H         64.29176       43.30077       14.47120
N         62.91599       46.40701       13.94245
C         62.88349       47.12468       15.21574
C         62.65009       48.61637       15.01928
O         61.57895       49.01196       14.61151
C         61.85819       46.53386       16.21037
C         60.45565       46.15206       15.74746
O         59.76939       45.54805       16.55606
O         59.90846       46.36979       14.52249
H         62.63770       46.92403       13.09367
H         63.89204       47.04357       15.67707
H         61.78850       47.20238       17.09624
H         62.29068       45.60208       16.60449
N         63.61953       49.52287       15.32579
C         63.44062       50.95975       15.13347
C         63.29142       51.29155       13.65903
O         64.13784       50.88647       12.87351
C         64.63671       51.72572       15.70392
H         64.51340       49.18283       15.71310
H         62.54632       51.30073       15.70168
H         65.57801       51.43970       15.18891
H         64.47474       52.81913       15.58433
H         64.73654       51.50720       16.78862
N         62.26388       52.07775       13.22382
C         62.09163       52.47175       11.82639
C         62.44495       53.94193       11.66434
O         62.79723       54.59631       12.63703
C         60.62771       52.22581       11.37158
C         60.14350       50.81121       11.54153
O         58.98417       50.54067       11.27340
O         60.93741       49.86875       12.08089
H         61.60688       52.46556       13.91865
H         62.77421       51.89499       11.16445
H         60.50395       52.49617       10.30229
H         59.95840       52.88316       11.97061
N         62.34734       54.52962       10.44149
C         62.59797       55.93781       10.19227
C         61.28584       56.61392        9.88867
O         60.93761       57.57124       10.56581
H         62.03776       53.95765        9.64324
H         63.30065       56.03262        9.33673
H         63.06585       56.43741       11.06916
N         60.47769       56.13101        8.90365
C         59.15575       56.67720        8.60378
C         58.20588       56.55806        9.79800
O         58.55937       55.98088       10.81772
C         58.53391       55.90920        7.40928
C         59.36562       55.99210        6.15442
N         59.57809       57.17847        5.54034
O         59.83706       54.97079        5.67658
H         60.81698       55.33020        8.35008
H         59.26708       57.75256        8.34206
H         57.52553       56.30151        7.16476
H         58.42020       54.84123        7.70432
H         59.17494       58.04782        5.91793
H         60.13711       57.22512        4.67550
N         56.94868       57.07581        9.70774
C         55.93613       56.96025       10.74440
C         56.29756       57.74270       11.98616
O         56.61637       58.91462       11.84323
H         56.67395       57.55853        8.83924
H         55.73840       55.89144       10.94709
H         54.99792       57.40952       10.35314
N         56.24489       57.22924       13.25274
C         55.82872       55.87022       13.61638
C         54.38726       55.58228       13.20215
O         53.63051       56.50116       12.92035
C         56.00169       55.69171       15.16099
C         55.44233       54.39621       15.76161
O         57.36938       55.76001       15.47997
H         56.51654       57.87214       14.01392
H         56.49113       55.15011       13.08697
H         55.43854       56.50812       15.67690
H         57.56872       56.69041       15.75994
H         55.91978       53.50478       15.30634
H         55.63260       54.38211       16.85584
H         54.33965       54.34592       15.63899
N         53.96209       54.28490       13.14214
C         52.60056       53.85924       12.84544
C         52.08983       53.03875       14.03691
O         52.71907       52.03490       14.34276
C         52.58133       52.98580       11.55104
C         53.00534       53.82876       10.32140
C         51.18521       52.36616       11.32853
C         53.17181       53.00613        9.03997
H         54.64949       53.53953       13.32939
H         51.96660       54.74156       12.65610
H         53.30645       52.15128       11.68274
H         53.98639       54.30351       10.52353
H         52.25984       54.63548       10.14408
H         50.89351       51.72853       12.18665
H         50.41879       53.15940       11.19979
H         51.17139       51.69383       10.44914
H         53.93908       52.21729        9.19041
H         52.22085       52.53649        8.71902
H         53.50455       53.67130        8.21592
N         50.95427       53.32876       14.74472
C         50.10410       54.49154       14.52975
C         48.65525       54.21920       14.92406
O         48.37682       53.94140       16.08126
C         50.68982       55.73244       15.24541
C         50.91292       55.59874       16.73619
O         51.36084       56.54955       17.35627
O         50.65706       54.45302       17.39691
H         50.68033       52.66853       15.48949
H         50.05830       54.71733       13.44957
H         50.01173       56.59397       15.06273
H         51.67461       55.97178       14.79311
N         47.67214       54.29569       13.97614
C         46.24638       54.13513       14.25020
C         45.45145       54.16269       12.94213
O         45.61828       55.10461       12.17762
C         45.73057       55.24367       15.21255
C         44.21894       55.22256       15.36558
C         43.40363       55.78889       14.36514
C         43.60584       54.63801       16.48721
C         42.01386       55.75203       14.46932
C         42.20835       54.60228       16.58734
C         41.41470       55.15527       15.57766
H         47.95346       54.48749       13.00230
H         46.09667       53.16563       14.76130
H         46.03464       56.25550       14.86820
H         46.20213       55.08678       16.20514
H         43.84116       56.26355       13.49832
H         44.20394       54.19506       17.27300
H         41.40414       56.18606       13.68687
H         41.73739       54.14140       17.44534
H         40.33547       55.12501       15.65274
N         44.50073       53.21766       12.64855
C         44.16086       52.09029       13.49937
C         45.22277       51.00264       13.43123
O         45.21625       50.13819       14.29701
C         42.78046       51.66915       12.99731
C         42.88515       51.95703       11.51365
C         43.62530       53.29534       11.49792
H         44.03937       52.40786       14.55794
H         42.45692       50.64689       13.28631
H         42.03717       52.39524       13.40465
H         43.55100       51.17983       11.07812
H         41.92364       51.96064       10.95735
H         44.17255       53.41428       10.53844
H         42.93256       54.15256       11.65369
N         46.19735       51.00490       12.47162
C         47.36964       50.13763       12.53757
C         48.12987       50.19177       11.20874
O         48.41199       51.29068       10.75261
C         48.28027       50.66898       13.67570
C         49.48729       49.78196       14.01469
C         49.09635       48.55095       14.79120
O         49.56437       48.37928       16.04234
O         48.35890       47.70720       14.31079
H         46.13558       51.68453       11.69937
H         47.03627       49.10432       12.75078
H         47.70601       50.82319       14.61444
H         48.65078       51.66971       13.36227
H         50.16191       50.37583       14.66723
H         50.05554       49.51618       13.09875
N         48.51458       49.08634       10.50742
C         48.32342       47.72542       10.95450
H         48.87087       47.56515       11.90282
H         47.24519       47.50029       11.08173
H         48.74719       47.02147       10.20667
H         49.00863       49.22220        9.61131
Ca        60.06618       47.94938       12.89836
O         60.97510       45.97302       10.87135
H         61.35215       45.06093       10.94271
H         61.64608       46.48180       10.35049
O         56.78531       48.19676       12.93433
H         56.00665       47.73684       12.53090
H         56.38936       48.91523       13.48891
O         58.88549       47.99401        9.71330
H         59.15355       47.99778        8.76029
H         58.00871       48.45397        9.72676
O         58.88121       50.13061       14.99108
H         59.53955       50.79888       14.67325
H         59.33219       49.67513       15.74622

Ca 1.0



