%chk=apoCaM-CA-Ng.loop1.water3.frame1315.chk
%nprocshared=20
%mem=10GB
%nosave
#b3lyp/svp scf=(tight,noincore,xqc) Test 
#IOP(5/87=12) Density=Current Pop=(MK,readradii) iop(6/33=2) iop(6/42=6)

apoCaM-CA-Ng.loop1.water3.frame1315 

   0  1 
C         47.17436       13.70048       60.53483
C         47.50142       13.60954       61.99263
O         46.71219       14.07206       62.80512
H         46.20676       14.22640       60.38378
H         47.97238       14.26059       60.00463
H         47.09487       12.67752       60.11276
N         48.66967       13.03208       62.39772
C         49.04192       12.91017       63.80206
C         50.20270       13.82665       64.13182
O         51.19756       13.40040       64.70250
C         49.24449       11.43066       64.20324
C         50.35032       10.69064       63.49085
O         50.55750        9.39211       63.77976
O         51.06270       11.23868       62.66487
H         49.32106       12.69011       61.67651
H         48.21386       13.27874       64.43796
H         48.29185       10.89210       64.00987
H         49.44511       11.38202       65.29600
N         50.08019       15.15289       63.84838
C         51.02449       16.16639       64.30166
C         51.06098       16.18376       65.82762
O         52.15099       16.05659       66.36750
C         50.69197       17.59164       63.77474
C         50.45893       17.69928       62.25562
C         51.64027       17.22042       61.39977
C         51.31289       17.23119       59.89517
N         51.03318       18.57349       59.38212
H         49.24316       15.44897       63.32930
H         52.03458       15.91326       63.90961
H         51.52558       18.26986       64.06441
H         49.77960       17.99192       64.25672
H         50.24771       18.76628       62.03349
H         49.55505       17.12085       61.97802
H         51.87646       16.16759       61.65923
H         52.53696       17.84439       61.60544
H         50.43905       16.56900       59.70106
H         52.18471       16.81142       59.34696
H         51.84686       19.20490       59.56152
H         50.87280       18.51185       58.35077
H         50.16856       18.96737       59.81569
N         49.94572       16.28652       66.62345
C         48.55630       16.35865       66.15921
C         47.80947       15.07611       66.51399
O         48.37918       14.18809       67.13293
C         47.86959       17.62921       66.69351
C         47.67165       17.57042       68.17261
O         46.89034       16.60570       68.69108
O         48.21484       18.38068       68.89710
H         50.09271       16.25837       67.64420
H         48.50078       16.44708       65.07191
H         46.87241       17.75413       66.22154
H         48.48368       18.51395       66.41282
N         46.52444       14.90100       66.09700
C         45.76980       13.67352       66.29479
C         45.40270       13.37370       67.73193
O         45.75123       14.12015       68.63397
H         46.07758       15.64775       65.54529
H         46.33362       12.81647       65.86903
H         44.81305       13.76578       65.73653
N         44.61785       12.28796       67.98427
C         44.08464       11.91615       69.29949
C         42.90347       10.94425       69.14251
O         42.84313       10.24194       68.14098
C         45.15737       11.23995       70.19143
C         46.26140       12.15631       70.61740
O         47.41794       11.90283       70.32399
O         45.98282       13.24117       71.36478
H         44.31238       11.75709       67.15433
H         43.70124       12.83891       69.77361
H         45.57232       10.36016       69.65246
H         44.70316       10.86196       71.12738
N         41.92237       10.79538       70.08336
C         41.82707       11.55311       71.32036
C         41.51456       13.01511       71.09806
O         41.24830       13.43495       69.98109
H         41.19669       10.08035       69.91845
H         42.76411       11.44528       71.89605
H         41.00936       11.13721       71.94837
N         41.54910       13.85608       72.16629
C         41.28337       15.28920       72.08727
C         42.24054       15.98532       71.13422
O         43.42871       15.69958       71.14745
C         41.39209       15.94537       73.48543
C         40.29247       15.44975       74.43035
O         41.26080       17.34034       73.36015
H         41.79620       13.44728       73.08023
H         40.24367       15.45160       71.72535
H         42.39259       15.68809       73.91320
H         41.96707       17.75342       73.92186
H         39.29323       15.70580       74.01530
H         40.34296       14.35304       74.58279
H         40.39884       15.94433       75.41847
N         41.75939       16.98412       70.33552
C         42.53034       17.81969       69.42158
C         43.59996       18.61027       70.15408
O         44.56927       18.02576       70.61013
C         43.11497       17.00705       68.22590
C         42.02145       16.20793       67.46813
C         43.88920       17.92007       67.25243
C         40.91207       17.05905       66.83660
H         40.75383       17.20436       70.39900
H         41.82412       18.56168       68.99376
H         43.84130       16.26138       68.61709
H         41.54864       15.48645       68.16658
H         42.50684       15.61530       66.66190
H         44.29141       17.32783       66.40367
H         43.24252       18.72880       66.85353
H         44.75146       18.39665       67.76122
H         40.19028       16.39388       66.31909
H         40.34998       17.62602       67.60593
H         41.32243       17.76427       66.08559
N         43.51237       19.96943       70.24069
C         44.58994       20.79629       70.76650
C         44.14910       21.61721       71.96847
O         44.40036       22.81424       72.00800
C         45.18763       21.65875       69.61908
C         44.16414       22.61877       68.99159
O         45.67926       20.82445       68.60232
H         42.67501       20.43794       69.86878
H         45.41794       20.15319       71.14313
H         46.02583       22.27608       70.01937
H         46.49866       20.39102       68.95494
H         44.65591       23.22800       68.20672
H         43.33216       22.06289       68.51375
H         43.73549       23.31285       69.74091
N         43.59372       21.00324       73.04990
C         43.44093       21.67913       74.33250
C         44.59375       21.18801       75.17718
O         44.52632       20.11905       75.76640
C         42.03519       21.50095       74.95359
C         40.97915       22.29296       74.17540
O         41.66093       20.14810       74.97906
H         43.43252       19.98485       73.01144
H         43.58785       22.77745       74.22823
H         42.03269       21.92752       75.98524
H         41.98508       19.76633       75.83437
H         41.22954       23.37681       74.18505
H         40.91473       21.94845       73.12231
H         39.98426       22.17114       74.65562
N         45.77962       21.85712       75.06444
C         47.07877       21.41834       75.56062
C         47.52531       20.12735       74.89687
O         46.72158       19.45716       74.26386
C         47.12944       21.30472       77.09237
C         46.71385       22.61365       77.77355
C         46.88207       22.51153       79.29180
C         46.38804       23.78670       79.98423
N         46.57982       23.70116       81.43102
H         45.78991       22.73255       74.51773
H         47.81070       22.19828       75.24866
H         48.17133       21.05514       77.39037
H         46.46496       20.48422       77.43946
H         45.64973       22.82703       77.53068
H         47.34214       23.45065       77.39631
H         47.95789       22.35188       79.52689
H         46.29988       21.64498       79.67467
H         45.30568       23.92504       79.76426
H         46.94217       24.66863       79.59254
H         46.20120       24.56716       81.87775
H         46.07146       22.87144       81.81470
H         47.59934       23.62356       81.65173
N         48.83507       19.74890       74.95429
C         49.33372       18.53219       74.31970
C         48.93052       18.45589       72.85756
O         48.30373       17.46776       72.51415
C         50.86529       18.36605       74.43607
C         51.34892       18.20735       75.88106
C         52.83231       17.97096       75.90680
O         53.32399       16.82187       76.40782
O         53.59873       18.81511       75.46960
H         49.49980       20.36889       75.44013
H         48.87294       17.65882       74.83700
H         51.39664       19.21289       73.95810
H         51.14826       17.43888       73.88720
H         50.83290       17.33773       76.34299
H         51.11963       19.11393       76.47792
N         49.20873       19.40134       71.91449
C         49.88762       20.66148       72.11530
H         50.79787       20.68580       71.48066
H         49.21180       21.48345       71.79830
H         50.17505       20.84955       73.16068
H         48.88921       19.22279       70.95765
Ca        46.59937       16.14458       70.87023
O         45.06014       16.98863       73.34299
H         45.39180       16.55750       74.16945
H         44.64357       17.83218       73.64970
O         47.50276       14.70983       73.57177
H         47.71365       15.12393       74.44592
H         47.39772       13.74582       73.77091
O         49.12684       14.55583       70.40824
H         49.27575       15.03530       69.55604
H         49.39424       13.62302       70.21515

Ca 1.0



