%chk=apoCaM-CA-Ng.loop4.water3.frame944.chk
%nprocshared=20
%mem=10GB
%nosave
#b3lyp/svp scf=(tight,noincore,xqc) Test 
#IOP(5/87=12) Density=Current Pop=(MK,readradii) iop(6/33=2) iop(6/42=6)

apoCaM-CA-Ng.loop4.water3.frame944 

   -3  1 
C         70.71315       31.53310       77.66569
C         70.09603       32.45308       76.65269
O         70.19334       32.17804       75.46578
H         71.48768       32.08618       78.23945
H         69.93849       31.15968       78.36579
H         71.20114       30.66652       77.16915
N         69.45854       33.59045       77.06453
C         68.92635       34.63033       76.17758
C         67.75958       34.18996       75.30875
O         67.25590       35.03182       74.57877
C         70.04861       35.21398       75.29859
C         71.12481       35.83577       76.12988
O         71.71208       35.14529       77.12244
O         71.49772       36.97317       75.89160
H         69.40457       33.76981       78.07928
H         68.53525       35.45782       76.81158
H         69.65123       35.98691       74.60413
H         70.49839       34.42041       74.66922
N         67.22509       32.93878       75.36154
C         66.06821       32.54005       74.56887
C         64.85318       32.65621       75.47460
O         64.83351       31.95875       76.47954
C         66.29435       31.10027       73.99161
C         67.41042       31.15376       72.91424
C         65.00657       30.50138       73.39790
C         67.73349       29.82044       72.23604
H         67.57253       32.26798       76.06078
H         65.94211       33.20700       73.70206
H         66.60130       30.42778       74.82360
H         68.34544       31.54400       73.36979
H         67.08789       31.85111       72.11608
H         64.69341       31.05993       72.49728
H         65.16384       29.44286       73.10864
H         64.18911       30.48986       74.14821
H         68.05787       29.06800       72.98263
H         66.86078       29.43585       71.66827
H         68.54985       29.97568       71.49841
N         63.78751       33.49063       75.24010
C         63.56341       34.34885       74.07013
C         62.78232       35.59702       74.45736
O         61.74797       35.46312       75.09780
C         62.73657       33.55778       73.04564
C         62.40470       34.36235       71.82568
O         61.11419       34.56526       71.50133
O         63.29233       34.82569       71.12580
H         63.00357       33.41337       75.90727
H         64.50622       34.66922       73.58776
H         61.79286       33.20946       73.51821
H         63.30352       32.67458       72.71953
N         63.17314       36.83759       74.03230
C         62.41186       38.04258       74.33778
C         61.85649       38.76779       73.12200
O         61.15879       39.74774       73.34424
H         64.03146       36.93327       73.46777
H         63.06402       38.74569       74.89950
H         61.54572       37.80726       74.99055
N         62.13359       38.40998       71.82868
C         61.67936       39.21487       70.68933
C         61.11360       38.42528       69.50552
O         60.60761       39.07355       68.60025
C         62.81703       40.17376       70.26043
C         64.16873       39.51851       70.11003
O         64.36525       38.64995       69.28148
O         65.18295       39.90021       70.90920
H         62.79539       37.64204       71.65235
H         60.83295       39.86720       71.00102
H         62.92564       40.93322       71.06438
H         62.53992       40.71796       69.33073
N         61.14640       37.06295       69.40755
C         60.62099       36.33608       68.24718
C         61.38060       36.60961       66.94883
O         60.97472       36.11563       65.90746
H         61.55184       36.51745       70.17111
H         59.55053       36.60351       68.11514
H         60.67808       35.24236       68.44097
N         62.50651       37.37136       66.95204
C         63.33995       37.73859       65.81798
C         63.99940       36.53767       65.16880
O         64.16769       36.51421       63.95773
C         62.63170       38.69657       64.83520
C         61.99993       39.88427       65.58674
C         61.48447       40.98299       64.69409
N         60.87271       42.05597       65.24757
O         61.62269       40.92374       63.48102
H         62.84046       37.72456       67.84535
H         64.18738       38.32048       66.24854
H         61.84135       38.16846       64.25869
H         63.39974       39.07384       64.12404
H         62.75002       40.33659       66.27095
H         61.14956       39.50263       66.18750
H         60.74476       42.11752       66.26904
H         60.52383       42.82563       64.65781
N         64.44197       35.51320       65.95074
C         65.22651       34.38602       65.45680
C         66.51296       34.19923       66.26630
O         67.26978       33.29933       65.92349
C         64.38374       33.07521       65.49365
C         63.88508       32.72030       66.90703
C         63.19533       33.15522       64.52594
H         64.19761       35.53065       66.95044
H         65.52985       34.56102       64.40080
H         65.02821       32.23921       65.13995
H         64.73602       32.61966       67.61217
H         63.18612       33.49139       67.29400
H         63.34489       31.74985       66.88654
H         62.49297       33.96266       64.81997
H         63.55672       33.35012       63.49363
H         62.64340       32.19065       64.51803
N         66.79597       34.93676       67.38570
C         67.88125       34.60690       68.29958
C         68.74856       35.81129       68.65759
O         68.33621       36.95274       68.50292
C         67.21533       34.04543       69.57752
C         68.17182       33.78017       70.70637
N         68.07035       34.48499       71.85519
O         69.04547       32.93451       70.58619
H         66.16005       35.68367       67.69377
H         68.54074       33.82348       67.86448
H         66.67094       33.10636       69.33583
H         66.45926       34.78537       69.92213
H         67.34112       35.20586       71.97065
H         68.73310       34.32104       72.62485
N         69.97011       35.57647       69.21718
C         70.86271       36.57331       69.79987
C         72.16048       35.88866       70.19117
O         72.12642       34.91416       70.93270
C         70.22744       37.23824       71.05003
C         71.22213       38.11569       71.78902
C         71.28112       39.49903       71.56069
C         72.12402       37.53734       72.70499
C         72.23481       40.28283       72.22392
C         73.07342       38.31884       73.36254
C         73.13636       39.69239       73.12401
O         74.06547       40.43111       73.76324
H         70.28286       34.59421       69.24188
H         71.08312       37.36766       69.05232
H         69.85327       36.47176       71.76051
H         69.34799       37.83755       70.73258
H         70.60182       39.96771       70.86040
H         72.09850       36.47580       72.91166
H         72.27731       41.34727       72.03308
H         73.76271       37.85249       74.05564
H         74.15064       41.38481       73.62537
N         73.34677       36.37400       69.73864
C         74.63617       35.78419       70.06051
C         75.53651       36.79134       70.77308
O         75.68927       37.88441       70.25030
C         75.28472       35.20608       68.76978
C         75.28091       36.07300       67.48853
C         76.07126       37.34257       67.57787
O         75.52478       38.41788       67.38583
O         77.38943       37.30416       67.84926
H         73.33707       37.20571       69.12851
H         74.49437       34.92497       70.72693
H         74.69589       34.30169       68.49959
H         76.31683       34.86264       68.99671
H         74.23151       36.30067       67.20119
H         75.71851       35.46919       66.66483
N         76.22847       36.54271       71.93493
C         76.22184       35.33094       72.76755
C         76.46327       34.07102       71.95193
O         77.48420       33.97065       71.28539
C         77.37581       35.39528       73.81393
C         77.28076       36.46851       74.91663
C         76.27704       36.09704       75.95684
O         75.25988       36.91470       76.25745
O         76.37352       35.02772       76.54002
H         76.85565       37.30343       72.23856
H         75.23942       35.24306       73.28317
H         78.31689       35.57614       73.25109
H         77.48605       34.40693       74.31649
H         77.07092       37.47361       74.49642
H         78.25957       36.51070       75.43925
N         75.55019       33.05554       71.98452
C         75.69589       31.81646       71.24954
H         76.63669       31.78050       70.66273
H         75.69143       30.96549       71.96291
H         74.83975       31.70147       70.55174
H         74.69822       33.15942       72.55723
Ca        73.76763       35.83855       77.50166
O         75.12719       38.07719       79.14044
H         75.73099       38.02960       79.92339
H         74.86081       39.02928       79.08691
O         74.33067       32.76933       77.77961
H         74.13297       32.72727       76.81016
H         75.08390       32.13968       77.90792
O         72.05156       37.31795       79.91159
H         71.10018       37.42303       79.65838
H         72.39775       38.24420       79.96259

Ca 1.0



