%chk=apoCaM-CA-Ng.loop1.water3.frame432.chk
%nprocshared=20
%mem=10GB
%nosave
#b3lyp/svp scf=(tight,noincore,xqc) Test 
#IOP(5/87=12) Density=Current Pop=(MK,readradii) iop(6/33=2) iop(6/42=6)

apoCaM-CA-Ng.loop1.water3.frame432 

   0  1 
C        107.63877       67.50373       72.19301
C        107.12925       67.20135       70.81614
O        106.02791       66.67967       70.71020
H        108.64232       67.97540       72.16253
H        106.93386       68.19239       72.70471
H        107.70593       66.55968       72.77444
N        107.87804       67.49077       69.70983
C        107.42872       67.18895       68.35456
C        108.30111       66.11801       67.71776
O        108.84989       66.30864       66.64643
C        107.21549       68.47877       67.52008
C        108.39593       69.38962       67.32424
O        108.25455       70.41633       66.67952
O        109.59459       69.11604       67.85890
H        108.80512       67.91941       69.84088
H        106.43818       66.71937       68.40358
H        106.42700       69.07971       68.02400
H        106.83202       68.18835       66.51895
N        108.43494       64.92663       68.36219
C        109.17814       63.76327       67.88165
C        108.36981       62.49114       68.17202
O        107.92562       62.35537       69.30340
C        110.54007       63.73783       68.61054
C        111.63250       64.46278       67.78177
C        112.69863       65.15505       68.63534
C        112.22639       66.52069       69.17421
N        112.07387       67.50758       68.09685
H        108.01431       64.85412       69.30146
H        109.38540       63.84010       66.80871
H        110.91338       62.69786       68.74931
H        110.40576       64.15584       69.63176
H        111.21437       65.18904       67.06259
H        112.12138       63.68811       67.15238
H        113.60105       65.34577       68.01492
H        112.99667       64.47912       69.46513
H        113.00402       66.89827       69.87170
H        111.27437       66.42229       69.74125
H        112.95055       67.57194       67.53003
H        111.27609       67.27350       67.46710
H        111.89348       68.44534       68.51893
N        108.16469       61.46600       67.27601
C        108.71265       61.35006       65.92553
C        110.22703       61.48963       65.97071
O        110.75253       62.44499       65.42211
C        108.01192       62.30491       64.92088
C        106.57639       61.94984       64.65244
O        105.92842       62.61980       63.86428
O        106.00805       60.87433       65.22475
H        107.63449       60.64801       67.61571
H        108.50880       60.33220       65.52572
H        108.51750       62.21288       63.93991
H        108.05288       63.35845       65.24617
N        111.03305       60.57815       66.58631
C        110.56699       59.30598       67.13051
C        111.72095       58.42108       67.58552
O        112.85125       58.88556       67.62882
H        112.04270       60.78764       66.58042
H        110.05907       58.76404       66.30392
H        109.85264       59.46254       67.96531
N        111.56759       57.09849       67.87900
C        110.31080       56.35929       67.86295
C        110.24483       55.49733       66.62148
O        111.19611       54.78193       66.33501
C        110.14306       55.50355       69.14101
C        111.14385       54.38178       69.29562
O        110.71881       53.10354       69.29699
O        112.33245       54.61508       69.44182
H        112.43191       56.56792       68.05938
H        109.44808       57.05812       67.84831
H        109.12926       55.04704       69.10342
H        110.18616       56.15743       70.03768
N        109.12993       55.50300       65.83738
C        109.04690       54.73635       64.61083
C        109.93772       55.36532       63.57863
O        110.88642       54.73762       63.12999
H        108.30727       56.05507       66.12314
H        108.00754       54.75936       64.21691
H        109.31437       53.67496       64.81039
N        109.65858       56.62760       63.14844
C        110.44849       57.34469       62.16128
C        110.87745       58.68195       62.74206
O        110.02835       59.45082       63.17456
C        109.63099       57.56068       60.86902
C        109.17928       56.22150       60.26798
O        110.43584       58.23420       59.93516
H        108.82039       57.09866       63.52485
H        111.34787       56.75535       61.87265
H        108.73355       58.17775       61.10630
H        109.84240       58.51444       59.19100
H        108.60979       56.40014       59.33155
H        110.05920       55.58506       60.03173
H        108.51647       55.67671       60.97215
N        112.19302       59.03205       62.75379
C        112.70833       60.30996       63.25775
C        112.30345       61.54385       62.41798
O        112.83458       62.60971       62.68936
C        114.26020       60.24144       63.46624
C        115.04554       60.05655       62.14120
C        114.60468       59.15320       64.50634
C        116.56472       60.10712       62.32921
H        112.86273       58.32972       62.41170
H        112.30118       60.47439       64.27268
H        114.57558       61.21018       63.91551
H        114.77125       60.87843       61.44683
H        114.79061       59.09351       61.65405
H        114.04044       59.33803       65.44126
H        114.35661       58.13585       64.14005
H        115.67753       59.17673       64.78166
H        116.92558       59.25998       62.94761
H        117.06273       60.02876       61.34054
H        116.86494       61.06468       62.80511
N        111.36513       61.49989       61.42233
C        110.98282       62.63105       60.55982
C        110.48927       63.90840       61.26087
O        110.31520       64.89792       60.56291
C        109.89033       62.17735       59.54731
C        108.57442       61.77339       60.25119
O        110.37739       61.09967       58.79121
H        110.92689       60.60095       61.21274
H        111.89651       62.92113       59.99616
H        109.67835       63.02822       58.85961
H        109.74409       60.96493       58.03833
H        107.81550       61.47517       59.49823
H        108.71995       60.91788       60.94289
H        108.15766       62.62135       60.83329
N        110.22920       63.97416       62.59676
C        109.77968       65.17054       63.32457
C        108.39344       65.65444       62.87192
O        107.87633       65.18480       61.86975
C        110.83934       66.31282       63.24596
C        112.23024       65.83871       63.67896
O        110.46153       67.38225       64.07376
H        110.36541       63.12485       63.15041
H        109.68187       64.87461       64.39150
H        110.90162       66.66742       62.19187
H        110.91133       68.19631       63.72515
H        112.59871       65.04668       63.00118
H        112.95062       66.68212       63.62150
H        112.20833       65.45558       64.72076
N        107.72759       66.59678       63.60576
C        106.45233       67.20514       63.23690
C        105.31422       66.82099       64.19157
O        104.20504       67.28521       63.96029
C        106.65198       68.74265       63.18448
C        107.54236       69.16010       61.99788
C        107.85670       70.66494       62.01245
C        108.56476       71.09153       60.71527
N        108.94127       72.50519       60.75395
H        108.15053       66.93279       64.47662
H        106.11910       66.85818       62.23454
H        107.09448       69.08709       64.14593
H        105.67428       69.25626       63.05532
H        106.99798       68.90176       61.06289
H        108.50584       68.60550       62.01072
H        108.50463       70.88583       62.88971
H        106.91781       71.25259       62.10636
H        107.87516       70.92060       59.85776
H        109.47860       70.47777       60.55577
H        108.10249       73.10384       60.93212
H        109.65417       72.66309       61.50280
H        109.35748       72.77403       59.83264
N        105.47018       65.94524       65.23169
C        104.35137       65.48993       66.06657
C        103.68755       66.64445       66.80696
O        104.35207       67.35861       67.53921
C        104.82254       64.40554       67.08003
C        103.71013       63.93417       68.04445
C        102.57290       63.25968       67.33063
O        101.48282       63.80377       67.26084
O        102.72722       62.02243       66.82418
H        106.40217       65.54398       65.41119
H        103.59834       65.00334       65.40866
H        105.64069       64.81188       67.70061
H        105.23342       63.53451       66.52885
H        103.33159       64.81316       68.60779
H        104.12315       63.22895       68.79643
N        102.34338       66.83631       66.71849
C        101.66257       67.84097       67.50753
H        100.56879       67.79294       67.32245
H        101.83922       67.65079       68.58971
H        102.03379       68.85339       67.24632
H        101.77620       66.22344       66.11458
Ca       104.47848       60.75409       67.47886
O        103.68105       57.05126       65.18760
H        104.27834       56.26919       65.29773
H        103.44164       57.04622       64.22682
O        103.61903       59.94114       63.56543
H        102.96813       59.40196       63.04991
H        104.49209       59.74825       63.13986
O        101.01750       59.77443       65.54386
H        100.59226       59.47066       64.70289
H        100.44454       60.51911       65.85663

Ca 1.0



