%chk=apoCaM-CA-Ng.loop2.water3.frame465.chk
%nprocshared=20
%mem=10GB
%nosave
#b3lyp/svp scf=(tight,noincore,xqc) Test 
#IOP(5/87=12) Density=Current Pop=(MK,readradii) iop(6/33=2) iop(6/42=6)

apoCaM-CA-Ng.loop2.water3.frame465 

   -2  1 
C         41.22652       66.55441       75.66019
C         40.88301       67.47136       74.52209
O         41.65785       67.55678       73.58002
H         42.18766       66.87141       76.11613
H         40.44166       66.56912       76.44575
H         41.32750       65.51510       75.28315
N         39.72506       68.18984       74.53627
C         39.33759       69.08697       73.45412
C         40.34609       70.21503       73.32433
O         40.54274       70.95338       74.28056
C         37.92312       69.65692       73.71788
C         37.37869       70.52081       72.60517
O         36.15311       71.06248       72.73455
O         38.01911       70.73079       71.58665
H         39.08882       68.07903       75.34148
H         39.28734       68.49635       72.51182
H         37.93238       70.25088       74.65776
H         37.21766       68.80821       73.85116
N         41.00378       70.41824       72.14751
C         41.93929       71.51632       71.94940
C         43.15226       71.36521       72.84172
O         43.84415       70.36126       72.75378
C         42.39003       71.59423       70.48886
H         40.79788       69.79254       71.35344
H         41.41169       72.47148       72.16981
H         42.91309       70.66349       70.18361
H         41.50755       71.74663       69.83190
H         43.07778       72.45751       70.35313
N         43.45343       72.34670       73.73340
C         44.60297       72.33492       74.62902
C         45.83728       72.84546       73.87795
O         46.29497       73.93915       74.18280
C         44.23567       73.23721       75.84203
C         45.18713       73.09704       76.98189
O         45.33106       71.87948       77.51457
O         45.77346       74.05772       77.45352
H         42.80087       73.14369       73.80116
H         44.76293       71.30589       75.02489
H         43.25174       72.90309       76.23972
H         44.13325       74.29968       75.53154
N         46.40420       72.13794       72.84903
C         47.41566       72.71516       71.96849
C         48.78213       72.06409       72.00880
O         49.66103       72.60217       71.34977
H         46.06919       71.19182       72.62881
H         47.58235       73.78305       72.22243
H         47.03215       72.69151       70.92574
N         49.07230       70.95635       72.75286
C         50.44139       70.46155       72.91775
C         50.62131       69.07675       72.31979
O         49.88783       68.15862       72.65742
C         50.81210       70.48203       74.40744
C         50.73393       71.89131       74.94685
N         49.86812       72.20894       75.93583
O         51.45465       72.75888       74.47460
H         48.31987       70.47844       73.27044
H         51.16685       71.13510       72.40989
H         51.85229       70.11215       74.54179
H         50.12843       69.80869       74.96823
H         49.24571       71.49705       76.34421
H         49.81461       73.17628       76.28755
N         51.62032       68.87284       71.41310
C         51.88037       67.62581       70.71794
C         52.25273       66.47424       71.62733
O         53.17515       66.59971       72.42019
H         52.23591       69.66387       71.16836
H         52.74498       67.78832       70.03686
H         51.00714       67.36753       70.08209
N         51.62870       65.27305       71.46860
C         52.02666       64.04808       72.15816
C         51.77453       64.10415       73.65598
O         52.71173       63.85867       74.40329
C         51.39889       62.77773       71.50397
C         49.86349       62.71623       71.44956
O         51.92516       62.58966       70.21224
H         50.89942       65.21507       70.74499
H         53.12323       63.90533       72.01416
H         51.73499       61.90432       72.10596
H         51.60424       63.32864       69.63405
H         49.55500       61.75502       70.98660
H         49.41712       62.75247       72.45615
H         49.43991       63.53742       70.83753
N         50.54997       64.41187       74.17223
C         50.26301       64.38950       75.60808
C         50.09483       65.79412       76.14131
O         50.20551       66.74555       75.37868
C         49.06925       63.42916       75.93072
C         47.71935       63.74822       75.23002
C         49.47745       61.98344       75.59964
C         47.08123       65.07545       75.63910
H         49.79958       64.69638       73.52671
H         51.13993       64.00239       76.17265
H         48.88628       63.44029       77.02620
H         46.99237       62.95690       75.51823
H         47.82388       63.71350       74.12611
H         50.39729       61.70547       76.15701
H         48.67514       61.27572       75.89919
H         49.67202       61.85417       74.51761
H         46.94710       65.11333       76.74121
H         47.67980       65.94085       75.30051
H         46.08262       65.16398       75.16134
N         49.86516       65.99599       77.47133
C         49.79210       67.31653       78.07326
C         50.81490       67.39525       79.20042
O         50.48419       67.80851       80.30125
C         48.35664       67.52698       78.58571
C         48.09328       68.90952       79.09323
O         46.90623       69.18357       79.64977
O         48.90810       69.80828       78.94695
H         49.75638       65.18280       78.09579
H         50.02980       68.09513       77.31543
H         48.14694       66.78887       79.38324
H         47.63382       67.34289       77.76203
N         52.07476       66.92223       79.00615
C         53.07233       66.82808       80.06926
C         52.52095       66.02017       81.25241
O         52.09153       64.89624       81.02537
C         54.31565       66.09382       79.51708
C         55.40217       65.95420       80.55183
C         56.15307       67.07089       80.95208
C         55.66875       64.70080       81.12897
C         57.15914       66.93253       81.91347
C         56.66495       64.56975       82.09899
C         57.41219       65.68385       82.48893
H         52.31142       66.55333       78.07160
H         53.36512       67.85169       80.38063
H         54.72807       66.61072       78.62316
H         53.98525       65.08462       79.18197
H         55.96503       68.04303       80.51343
H         55.09477       63.82860       80.84067
H         57.74193       67.79341       82.21349
H         56.85634       63.60376       82.54793
H         58.18692       65.57876       83.23687
N         52.53294       66.48289       82.54497
C         52.13671       65.66679       83.68524
C         50.63063       65.61586       83.89791
O         50.19205       64.83227       84.72814
C         52.84065       66.35340       84.85862
C         52.74101       67.81477       84.46044
C         53.08008       67.75610       82.97111
H         52.52356       64.62789       83.58565
H         52.44795       66.09570       85.86593
H         53.92121       66.08402       84.82408
H         51.67472       68.11781       84.56942
H         53.36743       68.51973       85.04658
H         52.62674       68.62689       82.45083
H         54.17882       67.73466       82.81163
N         49.77966       66.43771       83.22373
C         48.33220       66.38522       83.38578
C         47.81973       65.06266       82.85558
O         47.16628       64.33770       83.59319
C         47.65130       67.56362       82.65537
C         48.03097       68.91539       83.28736
C         47.36489       70.05962       82.58062
O         48.03939       70.93598       82.06358
O         46.02103       70.13452       82.52606
H         50.17383       67.13584       82.58452
H         48.06638       66.47964       84.46338
H         46.54725       67.44396       82.72728
H         47.93437       67.55467       81.58507
H         49.13157       69.06097       83.25023
H         47.71374       68.92885       84.35222
N         48.10595       64.67101       81.58375
C         47.65196       63.40941       81.04266
H         46.54205       63.37770       81.03389
H         48.02164       63.28977       80.00166
H         48.04370       62.57065       81.65687
H         48.68415       65.27737       80.98504
Ca        46.35384       71.30903       79.39579
O         43.41355       71.59118       80.00073
H         42.99830       72.32344       80.52162
H         43.01344       70.76353       80.36830
O         48.82225       73.08091       79.19053
H         49.48254       73.80193       79.34473
H         48.38508       73.32259       78.33577
O         46.50494       73.63002       81.56610
H         46.60186       73.59044       82.55076
H         45.71220       74.20395       81.41650

Ca 1.0



