%chk=apoCaM-CA-Ng.loop4.water3.frame360.chk
%nprocshared=20
%mem=10GB
%nosave
#b3lyp/svp scf=(tight,noincore,xqc) Test 
#IOP(5/87=12) Density=Current Pop=(MK,readradii) iop(6/33=2) iop(6/42=6)

apoCaM-CA-Ng.loop4.water3.frame360 

   -3  1 
C         88.59142       87.12718       50.05908
C         89.38459       86.78649       51.28182
O         89.21752       87.45167       52.29186
H         87.93050       88.00023       50.25392
H         89.27833       87.37661       49.22479
H         87.95881       86.26057       49.77596
N         90.25048       85.73078       51.27102
C         91.02970       85.30690       52.42926
C         90.12739       84.98523       53.59770
O         90.24284       85.61452       54.62597
C         92.24447       86.23907       52.72475
C         92.08724       87.74669       52.66106
O         91.36150       88.48761       53.52679
O         92.70200       88.34511       51.79170
H         90.32464       85.16641       50.41110
H         91.51378       84.33093       52.19485
H         92.98177       85.99565       51.92525
H         92.72628       85.94133       53.68134
N         89.22718       83.96241       53.48498
C         88.30410       83.45507       54.50760
C         89.04713       82.82114       55.68528
O         89.00923       81.60345       55.79911
C         87.22919       84.49768       54.92321
C         86.17001       83.91213       55.90196
C         86.54077       85.09019       53.68067
C         85.34840       82.73565       55.35384
H         89.19494       83.47472       52.57568
H         87.75744       82.62569       54.00667
H         87.72720       85.33891       55.44716
H         85.46213       84.72264       56.18383
H         86.67143       83.57536       56.83321
H         86.06259       84.30315       53.06260
H         85.76805       85.81887       53.98804
H         87.27369       85.62582       53.04418
H         84.78554       83.02256       54.44238
H         85.99272       81.86182       55.12845
H         84.60983       82.41488       56.11781
N         89.76364       83.55915       56.58198
C         90.59392       82.96190       57.61662
C         89.75131       82.40394       58.75976
O         89.86111       81.20855       58.99345
C         91.70868       83.93812       58.07329
C         92.65906       84.32225       56.96007
O         93.68688       85.14942       57.22737
O         92.51997       83.89387       55.82423
H         89.77297       84.57866       56.51311
H         91.15952       82.11222       57.16661
H         92.30998       83.44845       58.86878
H         91.29446       84.87574       58.47417
N         88.88028       83.13182       59.52595
C         88.60752       84.55623       59.36317
C         87.55706       85.08764       60.32759
O         87.02332       84.30341       61.09958
H         88.37855       82.60831       60.25895
H         88.23514       84.71610       58.33911
H         89.53126       85.10678       59.55649
N         87.15727       86.39815       60.38327
C         87.62733       87.55686       59.61780
C         87.41997       87.41363       58.11551
O         88.30258       86.88675       57.45617
C         89.08197       87.96271       59.95150
C         89.28986       88.16314       61.42541
O         88.64912       89.00796       62.03003
O         90.19687       87.41671       62.08444
H         86.41742       86.61312       61.07175
H         87.01538       88.41928       59.95559
H         89.32660       88.91226       59.42703
H         89.80046       87.20665       59.59166
N         86.33564       87.91319       57.45068
C         85.18228       88.56733       58.04942
C         84.33340       87.60414       58.84053
O         84.68984       86.43926       58.95379
H         86.32157       87.81480       56.42651
H         84.53540       88.94710       57.22928
H         85.49399       89.44126       58.65819
N         83.14380       88.01862       59.36702
C         82.25023       87.11529       60.08482
C         81.02863       86.73315       59.25410
O         80.34162       85.80503       59.66000
C         81.94916       87.63113       61.50987
C         81.26175       89.00390       61.62157
C         79.89864       89.03241       60.99756
N         78.93830       88.16864       61.39751
O         79.65516       89.85208       60.12746
H         82.84574       88.99271       59.20729
H         82.76703       86.14206       60.23580
H         82.91790       87.71050       62.04977
H         81.34488       86.86839       62.04596
H         81.90457       89.79080       61.17149
H         81.14523       89.24547       62.69968
H         79.11689       87.47646       62.13768
H         78.01191       88.18182       60.95952
N         80.75314       87.30983       58.04174
C         79.81109       86.72646       57.08324
C         78.61235       87.60691       56.73443
O         77.78493       87.13532       55.96782
C         80.57967       86.32566       55.78124
C         81.68621       85.30025       56.07793
C         81.18454       87.53503       55.03821
H         81.30102       88.12422       57.73614
H         79.37196       85.79460       57.50332
H         79.85789       85.83703       55.08961
H         82.46039       85.72784       56.75064
H         81.25355       84.39671       56.55667
H         82.18245       84.98632       55.13409
H         81.97060       88.04070       55.63611
H         81.65479       87.19706       54.09093
H         80.39886       88.27561       54.78090
N         78.43941       88.87050       57.22288
C         77.31269       89.72144       56.82478
C         77.77400       90.95950       56.07095
O         76.90108       91.70371       55.63472
C         76.47913       90.16884       58.04891
C         75.78075       89.04617       58.77145
N         74.88935       88.25198       58.13494
O         75.98465       88.88116       59.96230
H         79.13759       89.25963       57.86425
H         76.64028       89.18084       56.12588
H         75.67691       90.85963       57.70848
H         77.13168       90.72957       58.75438
H         74.67519       88.38672       57.13707
H         74.39966       87.50436       58.64913
N         79.08775       91.26156       55.85013
C         79.49206       92.47556       55.13841
C         80.98444       92.52079       54.83510
O         81.72214       91.69504       55.35168
C         79.10266       93.75304       55.93868
C         79.90392       93.92530       57.21722
C         80.78364       95.01542       57.34273
C         79.78955       93.01930       58.28842
C         81.53607       95.19209       58.50674
C         80.54344       93.19909       59.45288
C         81.41841       94.28322       59.56656
O         82.13717       94.44249       60.69618
H         79.81130       90.60467       56.17704
H         78.96494       92.46805       54.15792
H         78.02262       93.77445       56.18342
H         79.27534       94.62948       55.27982
H         80.89368       95.72941       56.53620
H         79.11853       92.17561       58.23503
H         82.20997       96.03603       58.58262
H         80.44678       92.49558       60.27013
H         82.75107       95.18131       60.81543
N         81.48530       93.51374       54.03701
C         82.88844       93.75104       53.68947
C         83.44166       92.75498       52.67547
O         83.81539       93.18779       51.59300
C         83.76936       93.91061       54.94771
C         85.21656       94.28877       54.59248
C         86.01822       94.57772       55.82760
O         87.10032       93.83259       56.12231
O         85.70345       95.50178       56.56111
H         80.81352       94.20345       53.66485
H         82.91898       94.73889       53.17322
H         83.78841       92.98068       55.55225
H         83.32343       94.72172       55.56517
H         85.22960       95.19288       53.94640
H         85.68957       93.45030       54.03586
N         83.55400       91.42681       52.94262
C         84.12863       90.46358       52.01173
C         83.40449       90.47577       50.67906
O         84.06425       90.39298       49.65173
C         84.12230       89.03313       52.59996
C         84.80806       88.87540       53.97584
C         86.24010       89.33677       53.99339
O         86.51179       90.52006       53.86811
O         87.23115       88.45108       54.19707
H         83.24035       91.08090       53.84640
H         85.18618       90.74278       51.81702
H         84.63524       88.35963       51.87725
H         83.07249       88.68330       52.70436
H         84.76395       87.80106       54.24044
H         84.25442       89.40888       54.77419
N         82.05358       90.63108       50.61286
C         81.35574       90.70098       49.34742
H         80.27432       90.88487       49.51933
H         81.76118       91.53620       48.73526
H         81.47718       89.74582       48.79506
H         81.50609       90.73636       51.48033
Ca        90.02060       88.12438       55.30773
O         91.67783       87.52206       57.63582
H         91.63259       88.43854       58.00713
H         92.29068       87.59729       56.86176
O         88.86655       90.41550       56.93918
H         89.51925       91.15984       56.96005
H         87.98174       90.85881       56.91494
O         90.13858       91.04715       53.97259
H         89.29872       91.52642       53.76208
H         90.81164       91.43910       53.36107

Ca 1.0



