%chk=apoCaM-CA-Ng.loop3.water5.frame443.chk
%nprocshared=20
%mem=10GB
%nosave
#b3lyp/svp scf=(tight,noincore,xqc) Test 
#IOP(5/87=12) Density=Current Pop=(MK,readradii) iop(6/33=2) iop(6/42=6)

apoCaM-CA-Ng.loop3.water5.frame443 

   0  1 
C         92.91008       59.51868       89.48283
C         92.89531       58.02320       89.38588
O         91.95688       57.46609       88.83499
H         93.81558       59.91767       88.97988
H         92.00708       59.95552       89.00607
H         92.92736       59.81735       90.55280
N         93.91648       57.30352       89.92939
C         93.99024       55.84696       89.94194
C         92.83356       55.24752       90.74658
O         92.43177       54.12326       90.48862
C         94.10775       55.29916       88.49725
C         94.52773       53.85271       88.40451
O         94.64789       53.33595       87.30545
O         94.81019       53.12829       89.50556
H         94.68579       57.81894       90.38631
H         94.93203       55.58248       90.47387
H         94.88484       55.88664       87.96136
H         93.14246       55.43340       87.96549
N         92.28633       55.94836       91.78356
C         91.24437       55.43032       92.66538
C         89.96693       56.25671       92.58807
O         89.04001       55.94722       93.32856
C         91.80068       55.40225       94.09965
C         92.97337       54.40912       94.21011
C         93.69391       54.46292       95.56170
C         92.80378       54.09852       96.75739
N         93.57492       54.14717       97.99888
H         92.64352       56.89099       91.99670
H         90.95501       54.39266       92.38827
H         91.00012       55.08713       94.80179
H         92.13429       56.42674       94.37742
H         93.73756       54.65037       93.44079
H         92.60343       53.37806       94.01421
H         94.11004       55.48355       95.70575
H         94.54209       53.74476       95.51969
H         92.39169       53.07457       96.61719
H         91.95733       54.81341       96.83774
H         92.95230       53.89976       98.80106
H         94.36613       53.46422       97.95841
H         93.95136       55.11207       98.14762
N         89.80302       57.26937       91.68683
C         88.54388       57.98916       91.51308
C         87.43803       56.98540       91.20915
O         87.59852       56.18687       90.29879
C         88.70382       59.05751       90.40687
C         87.42729       59.80423       90.17203
O         87.29617       61.10424       90.47551
O         86.48108       59.22890       89.67913
H         90.58078       57.50973       91.05675
H         88.29840       58.53063       92.45396
H         89.03133       58.59820       89.44688
H         89.48806       59.77550       90.73134
N         86.31670       56.93215       91.98731
C         85.32761       55.86823       91.89134
C         84.64225       55.71901       90.54596
O         84.15588       54.62573       90.29298
H         86.20132       57.62081       92.74554
H         84.55602       55.97596       92.68466
H         85.86529       54.91688       92.09840
N         84.54300       56.73825       89.64040
C         83.99099       56.55511       88.29690
C         85.02236       56.90832       87.21952
O         84.69351       57.58797       86.25634
C         82.64870       57.31215       88.13094
C         82.72523       58.82456       88.16582
N         81.60292       59.55307       87.96584
O         83.78716       59.39888       88.35139
H         84.87005       57.66413       89.91483
H         83.75628       55.47951       88.14700
H         81.94757       56.97507       88.92580
H         82.21285       57.02347       87.15013
H         80.69766       59.08984       87.79902
H         81.63932       60.58286       87.96446
N         86.29953       56.44053       87.31686
C         87.33799       56.61310       86.30416
C         87.78034       58.03601       85.97307
O         88.66150       58.16071       85.13461
H         86.54031       55.86428       88.13381
H         86.98979       56.13668       85.36379
H         88.24265       56.06408       86.64711
N         87.24338       59.14646       86.55026
C         87.59606       60.51013       86.15222
C         86.37023       61.39378       86.27278
O         85.75797       61.43606       87.33030
C         88.73649       61.08060       87.02012
C         89.00917       62.53322       86.66958
C         89.54996       62.89820       85.42305
C         88.67763       63.54263       87.58887
C         89.74763       64.24895       85.10616
C         88.86187       64.88918       87.26575
C         89.39612       65.24796       86.02134
O         89.56741       66.54488       85.69291
H         86.50664       59.02923       87.25352
H         87.94346       60.52564       85.09499
H         89.66513       60.48027       86.90612
H         88.42536       61.01397       88.07680
H         89.81386       62.14135       84.69555
H         88.25223       63.28650       88.54911
H         90.16108       64.52192       84.14306
H         88.58092       65.65210       87.98104
H         89.31640       67.26456       86.29020
N         85.99061       62.17858       85.23207
C         84.81497       63.03269       85.28767
C         83.58665       62.14826       85.17931
O         82.67811       62.30102       85.98251
C         84.87308       64.14745       84.19630
C         86.15182       65.00873       84.40609
C         83.62819       65.05479       84.28286
C         86.35739       66.10488       83.36034
H         86.56266       62.17325       84.37411
H         84.79577       63.58538       86.25615
H         84.90406       63.67074       83.19163
H         87.04704       64.36041       84.35834
H         86.12704       65.48045       85.41407
H         83.61873       65.81446       83.47715
H         82.70836       64.47575       84.15182
H         83.57416       65.56441       85.26876
H         85.55114       66.86434       83.39673
H         87.31245       66.63131       83.56997
H         86.40842       65.66082       82.34454
N         83.51035       61.16077       84.23427
C         82.33217       60.30787       84.10386
C         81.14464       61.08282       83.54945
O         80.03864       60.56368       83.59555
C         82.62418       59.07028       83.24296
O         82.97858       59.44848       81.94176
H         84.32218       60.99437       83.62022
H         82.07391       59.93174       85.11992
H         81.72094       58.41971       83.21263
H         83.45974       58.50437       83.71526
H         83.25466       58.61340       81.48176
N         81.29673       62.34336       83.03833
C         80.20233       63.20947       82.62639
C         79.25731       63.40517       83.79887
O         78.07611       63.10286       83.69811
C         79.52545       62.67278       81.35975
H         82.23833       62.74436       82.96530
H         80.62774       64.20398       82.36035
H         78.74374       63.38522       81.02081
H         80.28113       62.57767       80.54983
H         79.06003       61.68146       81.53022
N         79.75745       63.86975       84.97809
C         78.99474       63.98190       86.20828
C         79.02179       65.40591       86.71172
O         80.10133       65.95564       86.88425
C         79.61392       63.06057       87.26363
H         80.75526       64.11207       85.02764
H         77.94380       63.65119       86.06099
H         79.03582       63.11979       88.21051
H         79.59999       62.00913       86.90598
H         80.66535       63.35019       87.47385
N         77.85575       66.04716       87.01623
C         77.76875       67.37688       87.61660
C         78.20402       68.50130       86.68303
O         78.16097       69.64513       87.11586
C         78.53518       67.43706       88.96380
C         78.07492       66.34225       89.94456
C         78.78133       66.40280       91.27370
O         79.62649       67.25336       91.50746
O         78.47595       65.49790       92.22266
H         76.96793       65.54044       86.87944
H         76.69744       67.57341       87.84650
H         78.35538       68.42997       89.43179
H         79.62845       67.34155       88.79876
H         78.27059       65.34120       89.50480
H         76.98330       66.44504       90.12231
N         78.59071       68.27930       85.39175
C         78.98089       69.34306       84.48640
H         80.01571       69.16168       84.12924
H         78.29473       69.35206       83.61365
H         78.94782       70.34542       84.96324
H         78.59768       67.32676       85.00439
Ca        85.19632       61.86583       90.13139
O         83.51508       63.84569       88.83153
H         82.88680       64.58774       89.01397
H         82.95433       63.13443       88.43359
O         84.51569       62.60337       92.80506
H         83.72300       63.15859       93.01166
H         84.60905       61.99677       93.58139
O         84.27064       59.43981       91.91161
H         84.79971       59.60903       92.73105
H         83.37153       59.19192       92.24247
O         81.77685       61.53459       90.48111
H         81.54151       60.59984       90.70779
H         81.32272       62.08047       91.17051
O         86.38604       64.47691       89.99185
H         86.90350       64.03633       90.71246
H         85.67390       64.97444       90.46561

Ca 1.0



