%chk=apoCaM-CA-Ng.loop2.water4.frame144.chk
%nprocshared=20
%mem=10GB
%nosave
#b3lyp/svp scf=(tight,noincore,xqc) Test 
#IOP(5/87=12) Density=Current Pop=(MK,readradii) iop(6/33=2) iop(6/42=6)

apoCaM-CA-Ng.loop2.water4.frame144 

   -2  1 
C         40.78339       61.72167      -12.55641
C         40.47560       62.32187      -13.89663
O         40.18544       61.57753      -14.82205
H         41.02890       62.50477      -11.80807
H         39.90195       61.15250      -12.19397
H         41.65090       61.03523      -12.64690
N         40.52012       63.67187      -14.07278
C         40.22683       64.33285      -15.33674
C         41.44824       65.09516      -15.85504
O         41.28372       65.85505      -16.79148
C         39.00409       65.25410      -15.12554
C         38.45993       65.79956      -16.42020
O         38.05653       65.03780      -17.28570
O         38.39948       67.12878      -16.62494
H         40.76688       64.27107      -13.26910
H         39.94377       63.58913      -16.11441
H         39.27300       66.08489      -14.43722
H         38.18544       64.66583      -14.65644
N         42.69760       64.91612      -15.31510
C         43.94862       65.55588      -15.73848
C         44.39392       65.14848      -17.14061
O         45.34717       64.39209      -17.24364
C         43.91457       67.07262      -15.54587
H         42.80020       64.25510      -14.53205
H         44.73565       65.17583      -15.04636
H         43.67410       67.30574      -14.48656
H         44.91148       67.50355      -15.78027
H         43.15653       67.55231      -16.19616
N         43.76451       65.59316      -18.26366
C         44.10478       65.16322      -19.61312
C         43.00660       64.26854      -20.16915
O         43.04071       63.96301      -21.35336
C         44.34169       66.39768      -20.50236
C         45.50282       67.21145      -20.00331
O         46.73031       66.66126      -19.92865
O         45.34227       68.37515      -19.67285
H         42.98438       66.25201      -18.18677
H         45.03154       64.54718      -19.63288
H         43.41993       67.02027      -20.53162
H         44.57595       66.07466      -21.53981
N         42.06387       63.71350      -19.34696
C         41.08160       62.74014      -19.78511
C         41.77062       61.56425      -20.42520
O         41.43846       61.21836      -21.55034
H         42.07333       63.91581      -18.33932
H         40.36210       63.20645      -20.49159
H         40.51535       62.38240      -18.89631
N         42.80123       60.94572      -19.78389
C         43.57467       59.87026      -20.39645
C         42.73594       58.60877      -20.54725
O         41.57722       58.59760      -20.15481
C         44.87483       59.62876      -19.59534
C         45.73610       60.87476      -19.57690
N         46.22919       61.39870      -20.72639
O         45.99122       61.41492      -18.51155
H         43.08768       61.30599      -18.85950
H         43.87534       60.18902      -21.41853
H         45.47782       58.81735      -20.05325
H         44.61785       59.32497      -18.55679
H         46.03759       60.95836      -21.63806
H         46.81169       62.24936      -20.70800
N         43.26363       57.50950      -21.15448
C         42.49523       56.32152      -21.48487
C         43.00253       55.11105      -20.74356
O         44.20057       54.86711      -20.74173
H         44.24968       57.52647      -21.45344
H         42.60773       56.14695      -22.57557
H         41.41008       56.45694      -21.28759
N         42.11994       54.26694      -20.13366
C         42.54296       53.04587      -19.44900
C         43.08424       53.33455      -18.04830
O         43.55646       52.40216      -17.40827
C         41.39877       51.98849      -19.42194
C         40.19452       52.35757      -18.54029
O         40.98173       51.68557      -20.73198
H         41.11441       54.46471      -20.23284
H         43.35238       52.57943      -20.05459
H         41.81115       51.04863      -18.99366
H         40.38194       52.41142      -21.04653
H         40.51522       52.43368      -17.48698
H         39.72110       53.30959      -18.85728
H         39.43107       51.55306      -18.59250
N         43.02708       54.58264      -17.49453
C         43.48532       54.91617      -16.14421
C         44.57491       55.97790      -16.20977
O         44.95458       56.36095      -17.31260
C         42.27661       55.38193      -15.26699
C         41.64650       56.70965      -15.77401
C         41.23346       54.25908      -15.17548
C         40.51845       57.23066      -14.88345
H         42.61734       55.35138      -18.04417
H         43.92890       54.02482      -15.64665
H         42.64864       55.54804      -14.23469
H         41.24489       56.59176      -16.80169
H         42.43022       57.49439      -15.79671
H         40.74701       54.12219      -16.15731
H         41.71094       53.30788      -14.85614
H         40.44906       54.49623      -14.43007
H         40.87971       57.36944      -13.84283
H         40.16496       58.20824      -15.27328
H         39.65240       56.53796      -14.88841
N         45.09036       56.54556      -15.07562
C         46.03565       57.65286      -15.12928
C         47.15513       57.48873      -14.09951
O         47.57169       58.46615      -13.49599
C         45.22953       58.96625      -14.99252
C         45.98248       60.22866      -15.30629
O         45.32763       61.40388      -15.25951
O         47.15623       60.20641      -15.64101
H         44.71987       56.27082      -14.15340
H         46.52071       57.66299      -16.13048
H         44.79453       59.02807      -13.97128
H         44.39101       58.93225      -15.72166
N         47.71810       56.26511      -13.88060
C         48.90444       56.05295      -13.04994
C         48.73993       56.56355      -11.61894
O         47.80090       56.14741      -10.95617
C         49.29367       54.55798      -13.05330
C         50.63465       54.33803      -12.39139
C         51.78347       54.18432      -13.18481
C         50.76155       54.31277      -10.98960
C         53.03667       54.02398      -12.58970
C         52.01700       54.14296      -10.39841
C         53.15408       54.00328      -11.19801
H         47.31656       55.45377      -14.37455
H         49.72900       56.59229      -13.55589
H         49.37047       54.25296      -14.11995
H         48.51555       53.91290      -12.58814
H         51.71178       54.21095      -14.26494
H         49.89301       54.42199      -10.35287
H         53.91724       53.92160      -13.20983
H         52.10931       54.12432       -9.32010
H         54.12656       53.88003      -10.74011
N         49.65033       57.42219      -11.04820
C         49.57323       57.94350       -9.68659
C         48.27176       58.66327       -9.39836
O         47.66611       58.42361       -8.36411
C         50.74118       58.94131       -9.61595
C         51.75362       58.29199      -10.52360
C         50.87605       57.86268      -11.69269
H         49.74057       57.10915       -8.96824
H         50.46359       59.90283      -10.10627
H         51.09476       59.16224       -8.58597
H         52.62397       58.92172      -10.80551
H         52.12784       57.37612      -10.00847
H         50.63832       58.70459      -12.37995
H         51.42189       57.05514      -12.22317
N         47.77972       59.55246      -10.30530
C         46.54552       60.31669      -10.13108
C         45.35613       59.40685       -9.87841
O         44.46234       59.80035       -9.14136
C         46.25843       61.16688      -11.38659
C         47.34632       62.21867      -11.67148
C         47.11585       62.83852      -13.01521
O         46.09305       63.46256      -13.24963
O         48.02899       62.64725      -13.98675
H         48.30991       59.66336      -11.18086
H         46.65864       60.99735       -9.25758
H         45.28533       61.69542      -11.27300
H         46.17615       60.47478      -12.25357
H         48.34915       61.74906      -11.70347
H         47.35976       62.99458      -10.87660
N         45.28193       58.17032      -10.44203
C         44.18055       57.26947      -10.18590
H         43.23363       57.71589      -10.55376
H         44.35257       56.30506      -10.70985
H         44.09982       57.06735       -9.09565
H         46.03683       57.84764      -11.06041
Ca        47.63860       63.22913      -16.12500
O         48.96720       60.71419      -18.20209
H         49.90583       60.41248      -18.29059
H         48.42894       59.93969      -18.50382
O         50.59786       62.90247      -16.14951
H         51.14500       62.55317      -15.40223
H         50.48369       63.86491      -15.94555
O         47.82461       66.15592      -15.72219
H         47.24407       66.33943      -16.50299
H         47.19716       65.89825      -15.00068
O         48.65488       64.41032      -18.60803
H         49.55190       64.80457      -18.46585
H         48.69717       64.00790      -19.51130

Ca 1.0



