%chk=apoCaM-CA-Ng.loop2.water4.frame341.chk
%nprocshared=20
%mem=10GB
%nosave
#b3lyp/svp scf=(tight,noincore,xqc) Test 
#IOP(5/87=12) Density=Current Pop=(MK,readradii) iop(6/33=2) iop(6/42=6)

apoCaM-CA-Ng.loop2.water4.frame341 

   -2  1 
C         73.39921      105.56635       59.71945
C         73.79673      106.90490       60.26893
O         73.82794      107.06591       61.47923
H         72.49529      105.67909       59.08471
H         74.22668      105.15016       59.10786
H         73.16793      104.85388       60.54084
N         74.12768      107.92073       59.42331
C         74.49851      109.25506       59.88740
C         73.30480      109.90664       60.56445
O         72.26367      110.03780       59.93431
C         74.98002      110.11359       58.69919
C         75.50435      111.47094       59.09933
O         75.91849      112.22885       58.23767
O         75.54299      111.85923       60.38960
H         74.12305      107.72626       58.40957
H         75.35455      109.15635       60.59275
H         74.14805      110.24263       57.97294
H         75.80823      109.57524       58.18866
N         73.38173      110.32054       61.86114
C         72.23579      110.85446       62.59132
C         71.14749      109.80584       62.64088
O         70.00611      110.11425       62.33214
C         72.63929      111.25874       64.01184
H         74.27935      110.21344       62.35879
H         71.85631      111.77290       62.08833
H         73.42303      112.04524       63.96778
H         71.76027      111.67786       64.54845
H         73.02975      110.38986       64.58188
N         71.47419      108.51369       62.93628
C         70.55745      107.38475       62.89001
C         69.60016      107.45973       64.05835
O         68.39210      107.53084       63.88074
C         69.89924      107.26384       61.49256
C         69.17038      105.96445       61.32202
O         69.84842      104.80588       61.39812
O         67.97389      105.95066       61.08186
H         72.45739      108.30050       63.15856
H         71.16168      106.46089       63.04236
H         70.69284      107.29756       60.71464
H         69.20005      108.10460       61.30907
N         70.12270      107.42205       65.31461
C         69.34579      107.45865       66.53764
C         69.55534      106.21069       67.37362
O         69.13021      106.21665       68.51969
H         71.14793      107.35501       65.41840
H         68.25863      107.58973       66.34955
H         69.69961      108.33645       67.12049
N         70.17300      105.09585       66.87333
C         70.43428      103.89633       67.66202
C         71.91182      103.55017       67.57218
O         72.39941      103.26839       66.48642
C         69.56929      102.72540       67.15544
C         68.09615      102.98363       67.37428
N         67.59708      103.13088       68.62470
O         67.34228      103.04493       66.41578
H         70.46018      105.07511       65.88385
H         70.17961      104.06742       68.72949
H         69.83453      101.79503       67.70254
H         69.77158      102.55986       66.07352
H         68.20837      103.06413       69.45110
H         66.59089      103.30177       68.76996
N         72.69335      103.58376       68.68804
C         74.12309      103.30765       68.68840
C         74.46060      101.84896       68.46681
O         73.57143      101.03561       68.24823
H         72.26799      103.87040       69.58268
H         74.51692      103.56511       69.69570
H         74.63891      103.95226       67.94464
N         75.75969      101.43967       68.59052
C         76.15410      100.03234       68.54534
C         75.97471       99.40016       67.17006
O         75.97567       98.18277       67.09624
C         77.59546       99.80230       69.07762
C         78.69667      100.41416       68.19680
O         77.70641      100.25427       70.40610
H         76.46395      102.15742       68.81766
H         75.47671       99.49490       69.24799
H         77.78394       98.70651       69.09675
H         77.80334      101.24164       70.39663
H         78.57926      101.51279       68.09542
H         79.69227      100.20255       68.63977
H         78.67546       99.95296       67.19429
N         75.80181      100.16148       66.04772
C         75.47966       99.59818       64.73485
C         74.07240      100.06407       64.39354
O         73.53095      100.89191       65.10988
C         76.56369      100.02359       63.68264
C         77.99553       99.61309       64.11330
C         76.29700       99.51065       62.25342
C         78.22589       98.10673       64.28005
H         75.84273      101.18686       66.12255
H         75.43602       98.49063       64.79010
H         76.56580      101.13468       63.62268
H         78.23757      100.11838       65.06416
H         78.72182       99.99309       63.36162
H         76.20118       98.40455       62.23066
H         75.38844       99.97420       61.82407
H         77.12522       99.80865       61.57595
H         79.27847       97.93135       64.58685
H         77.57149       97.68295       65.06606
H         78.05290       97.56488       63.32827
N         73.38928       99.53266       63.34090
C         72.02323       99.91897       63.03114
C         71.15305       98.66522       63.09042
O         70.36358       98.40887       62.19476
C         72.05879      100.66016       61.68199
C         70.73607      101.21396       61.27339
O         70.09070      102.14330       62.00441
O         70.23720      100.83979       60.22773
H         73.82294       98.80500       62.75850
H         71.63106      100.62346       63.79602
H         72.43618       99.96243       60.90061
H         72.76938      101.51197       61.75339
N         71.32410       97.80118       64.13493
C         70.61535       96.53442       64.32342
C         70.70403       95.64779       63.07980
O         71.81246       95.41170       62.61843
C         71.26322       95.74921       65.49653
C         71.23320       96.48167       66.81871
C         72.43304       96.90557       67.42212
C         70.01453       96.73135       67.47046
C         72.41033       97.57295       68.65009
C         69.99749       97.39160       68.70433
C         71.19360       97.81380       69.29212
H         72.04592       98.04652       64.82859
H         69.55875       96.74812       64.57655
H         72.32095       95.53721       65.21992
H         70.75632       94.76823       65.63067
H         73.38671       96.72550       66.94133
H         69.08124       96.40415       67.03021
H         73.33659       97.90024       69.10526
H         69.05669       97.57384       69.20711
H         71.17823       98.32516       70.24612
N         69.59872       95.06378       62.51005
C         69.67562       94.09933       61.41937
C         69.74091       94.75054       60.04566
O         69.97717       94.03966       59.07838
C         68.37583       93.30578       61.58062
C         67.40776       94.39400       62.01291
C         68.24749       95.17088       63.02578
H         70.54571       93.41685       61.54450
H         68.06982       92.71075       60.69325
H         68.49201       92.61317       62.44526
H         67.22216       95.04727       61.13029
H         66.42730       94.04671       62.40058
H         67.88305       96.21881       63.09230
H         68.21933       94.68438       64.02596
N         69.49523       96.07699       59.86955
C         69.57030       96.73820       58.57166
C         71.00526       96.71613       58.08246
O         71.24781       96.21188       56.99506
C         69.05970       98.18400       58.69619
C         67.53131       98.24614       58.91894
C         67.14308       99.62821       59.34548
O         66.45506      100.35449       58.64695
O         67.60053      100.04120       60.53673
H         69.23317       96.64193       60.68936
H         68.92180       96.21967       57.82961
H         69.28872       98.76708       57.77638
H         69.60355       98.64468       59.54185
H         67.21301       97.55792       59.73084
H         67.01724       97.94819       57.97994
N         72.01107       97.22523       58.85066
C         73.40485       97.21379       58.45190
H         73.99080       96.61654       59.18194
H         73.55509       96.77468       57.44296
H         73.79474       98.25275       58.44294
H         71.78798       97.62526       59.77412
Ca        67.90536      102.03161       61.51246
O         65.44579      103.70171       60.56329
H         64.98164      102.84997       60.36388
H         64.71911      104.36968       60.64020
O         65.47217      101.35146       63.19310
H         66.27313      101.18684       63.75186
H         65.28999      102.31894       63.29985
O         68.53578      103.96136       63.92410
H         67.70534      103.43271       63.82550
H         68.21816      104.87341       64.13591
O         68.01103      103.39228       58.47127
H         67.84129      102.58037       57.93092
H         67.36051      104.05636       58.13025

Ca 1.0



