%chk=apoCaM-CA-Ng.loop1.water3.frame724.chk
%nprocshared=20
%mem=10GB
%nosave
#b3lyp/svp scf=(tight,noincore,xqc) Test 
#IOP(5/87=12) Density=Current Pop=(MK,readradii) iop(6/33=2) iop(6/42=6)

apoCaM-CA-Ng.loop1.water3.frame724 

   0  1 
C         82.82931      112.51426       31.93335
C         83.51124      113.43492       30.95859
O         83.04012      114.54812       30.77702
H         81.78254      112.33334       31.61148
H         83.34949      111.53555       32.00548
H         82.82147      112.97901       32.94226
N         84.64361      113.03934       30.30873
C         85.37939      113.88211       29.36687
C         85.50657      113.19925       28.00947
O         86.02675      112.09693       27.92436
C         86.74582      114.31036       29.94504
C         87.69692      113.22243       30.37276
O         88.78640      113.53403       30.82533
O         87.37183      111.92098       30.29444
H         85.00484      112.09658       30.50976
H         84.83540      114.83975       29.21335
H         86.55212      114.94375       30.83817
H         87.25371      114.94286       29.18424
N         85.01480      113.81307       26.89619
C         84.99116      113.20252       25.56842
C         86.38058      112.94537       25.00118
O         87.15428      113.87720       24.83363
C         84.14315      114.06557       24.61182
C         84.76424      115.42813       24.23460
C         83.71502      116.41073       23.70014
C         82.91910      115.89043       22.49459
N         81.87964      116.84870       22.12292
H         84.56893      114.73488       27.01731
H         84.44114      112.23927       25.66288
H         83.16970      114.22983       25.12480
H         83.94383      113.49796       23.67681
H         85.57427      115.27617       23.48775
H         85.20847      115.91199       25.13048
H         84.22322      117.36206       23.42795
H         83.00499      116.62526       24.52811
H         82.42159      114.93108       22.75172
H         83.60234      115.71388       21.63480
H         82.30921      117.75995       21.84418
H         81.32858      116.46484       21.32224
H         81.23148      116.99856       22.93149
N         86.75416      111.67744       24.68209
C         88.03632      111.32501       24.07099
C         87.82855      110.41953       22.86472
O         86.76289      109.83258       22.73725
C         88.95529      110.64445       25.11802
C         88.20950      109.83289       26.14489
O         87.52640      108.87428       25.82209
O         88.25869      110.22235       27.43474
H         86.09428      110.91268       24.89319
H         88.55396      112.23530       23.70601
H         89.47068      111.45147       25.67913
H         89.73834      110.02297       24.63558
N         88.80253      110.20351       21.93078
C         90.07506      110.90889       21.82906
C         89.91345      112.31760       21.28940
O         88.80088      112.80800       21.17680
H         88.61706      109.49736       21.20210
H         90.67925      110.37572       21.06232
H         90.65442      110.88453       22.77294
N         91.01362      112.99927       20.85958
C         90.95915      114.29188       20.17566
C         90.13841      114.18502       18.89602
O         90.45353      113.36010       18.04895
C         92.39483      114.75534       19.82666
C         92.41866      116.03253       19.02671
O         91.87943      117.16075       19.52530
O         92.92521      116.04722       17.91535
H         91.93349      112.54613       20.97978
H         90.50947      115.05326       20.85165
H         92.90610      113.95956       19.23984
H         92.96786      114.91239       20.76588
N         89.10148      115.04228       18.66895
C         88.35089      115.06500       17.42122
C         87.41995      113.88427       17.21937
O         86.78751      113.83265       16.17367
H         88.88586      115.76482       19.37313
H         89.06316      115.14814       16.57325
H         87.70813      115.97335       17.40977
N         87.20818      112.95513       18.19294
C         86.19227      111.91008       18.10940
C         86.74079      110.54752       18.52150
O         87.89856      110.44167       18.90329
C         84.98801      112.32394       19.00511
C         85.36417      112.55137       20.47879
O         84.42702      113.50439       18.48996
H         87.70194      113.05877       19.08330
H         85.81154      111.81223       17.06868
H         84.22564      111.51482       18.96115
H         83.46837      113.51047       18.74956
H         86.06691      113.40382       20.58725
H         84.45365      112.79958       21.06333
H         85.82413      111.64145       20.91372
N         85.91412      109.46003       18.51584
C         86.27273      108.16014       19.08467
C         87.24019      107.38732       18.18417
O         87.80206      106.40567       18.64539
C         84.96628      107.35895       19.43070
C         84.09482      108.18597       20.42835
C         85.26183      105.96591       20.02634
C         82.71200      107.59082       20.69881
H         84.95108      109.59492       18.17557
H         86.79250      108.34911       20.05065
H         84.39349      107.21331       18.48764
H         83.89968      109.19943       20.02682
H         84.63672      108.31270       21.39079
H         85.80448      105.32301       19.30805
H         85.85132      106.05803       20.96360
H         84.32776      105.41242       20.24168
H         82.15169      107.47956       19.74613
H         82.77436      106.61210       21.21215
H         82.14427      108.27709       21.36256
N         87.51256      107.78337       16.90620
C         88.46806      107.09319       16.03851
C         87.79357      106.62259       14.75606
O         86.60218      106.83515       14.58395
C         89.68861      108.01384       15.76951
C         89.33413      109.34329       15.08893
O         90.39307      108.24937       16.96389
H         87.03981      108.61282       16.52413
H         88.86365      106.17749       16.53005
H         90.39066      107.48222       15.09531
H         89.81217      108.78393       17.56470
H         88.81990      109.16145       14.12229
H         88.68257      109.96481       15.73779
H         90.26502      109.91538       14.89417
N         88.52066      105.95366       13.81137
C         87.95791      105.42697       12.57615
C         88.20784      103.92612       12.53313
O         87.24263      103.17313       12.53619
C         88.53270      106.20654       11.36020
C         87.96458      105.72501       10.02367
O         89.93554      106.12747       11.31110
H         89.52460      105.79825       13.97462
H         86.85639      105.58879       12.55490
H         88.21549      107.27245       11.47428
H         90.29992      107.02308       11.53645
H         88.24504      104.66752        9.83327
H         86.85827      105.81813       10.01575
H         88.37469      106.34916        9.20012
N         89.47531      103.42073       12.48171
C         89.77975      101.99626       12.42608
C         90.89780      101.66437       13.40267
O         91.84352      102.43647       13.50242
C         90.17851      101.63018       10.98757
C         90.21463      100.10633       10.79068
C         90.46598       99.73797        9.32660
C         90.34656       98.22171        9.12336
N         90.56167       97.86300        7.72283
H         90.26855      104.07324       12.42113
H         88.87094      101.39843       12.66272
H         91.14671      102.10237       10.71014
H         89.39060      102.02876       10.30994
H         89.22281       99.69558       11.08560
H         90.99517       99.64575       11.43390
H         91.47664      100.08829        9.02379
H         89.70594      100.23851        8.68680
H         89.32817       97.88986        9.42901
H         91.09173       97.69570        9.76018
H         89.85565       98.34107        7.11657
H         91.52620       98.13762        7.42700
H         90.45299       96.82874        7.61490
N         90.89675      100.50077       14.11181
C         91.96009      100.16930       15.05768
C         91.95765      101.13971       16.23440
O         92.98003      101.78221       16.42736
C         91.89959       98.69558       15.52837
C         92.25015       97.72893       14.38475
C         92.17086       96.29947       14.83881
O         91.41643       95.52028       14.27882
O         92.93880       95.86573       15.85710
H         90.13476       99.82444       13.94914
H         92.94398      100.27133       14.54178
H         90.90770       98.43822       15.94636
H         92.65600       98.54618       16.33136
H         93.28833       97.93028       14.03850
H         91.56051       97.88254       13.52759
N         90.90173      101.34386       17.07847
C         89.59650      100.72072       16.99579
H         88.82448      101.51082       16.89005
H         89.47936      100.03872       16.14206
H         89.40215      100.15305       17.92948
H         91.02839      102.01916       17.84850
Ca        86.98176      109.27244       29.03188
O         86.15816      108.91933       31.91546
H         87.10951      108.76095       32.14020
H         85.83106      108.04261       31.59117
O         89.21563      107.38132       29.28802
H         89.99610      107.98555       29.21440
H         89.12732      106.98119       28.38679
O         90.30277      110.13698       30.86119
H         89.50846      110.63377       30.54596
H         90.89271      110.83320       31.24405

Ca 1.0



