%chk=apoCaM-CA-Ng.loop3.water3.frame828.chk
%nprocshared=20
%mem=10GB
%nosave
#b3lyp/svp scf=(tight,noincore,xqc) Test 
#IOP(5/87=12) Density=Current Pop=(MK,readradii) iop(6/33=2) iop(6/42=6)

apoCaM-CA-Ng.loop3.water3.frame828 

   0  1 
C         65.54331       91.71364       69.11006
C         65.82660       92.72333       68.03951
O         66.89024       92.67654       67.43964
H         64.64246       91.12707       68.82918
H         66.39748       91.01292       69.22733
H         65.35966       92.22761       70.07567
N         64.88944       93.65923       67.72262
C         65.06336       94.60810       66.62371
C         66.22139       95.55961       66.92082
O         66.52531       95.74461       68.09228
C         63.72836       95.36364       66.37831
C         63.51722       95.73980       64.93596
O         62.52903       95.33891       64.34246
O         64.42343       96.46055       64.26906
H         64.00113       93.64421       68.24784
H         65.29555       94.00863       65.72701
H         63.65215       96.23242       67.06528
H         62.87606       94.68927       66.61751
N         66.91496       96.19511       65.92613
C         68.00892       97.13370       66.19588
C         67.62129       98.56472       65.81028
O         68.24909       99.49089       66.30299
C         69.29930       96.64163       65.50617
C         70.58275       97.30857       66.02875
C         71.81650       96.75655       65.29595
C         73.12150       97.27152       65.92008
N         74.28574       96.77190       65.18720
H         66.66870       95.99795       64.94814
H         68.19471       97.14907       67.29162
H         69.20647       96.77597       64.40886
H         69.40325       95.55308       65.71296
H         70.67019       97.08315       67.11473
H         70.54675       98.40974       65.89333
H         71.76480       97.05681       64.22615
H         71.82163       95.64570       65.35282
H         73.17938       96.92485       66.97662
H         73.13517       98.38348       65.91415
H         74.27672       97.14072       64.20848
H         75.15778       97.09894       65.66278
H         74.28428       95.72594       65.16908
N         66.55516       98.81989       64.99219
C         65.98040      100.13783       64.75287
C         64.52693      100.18985       65.24209
O         63.89272      101.22235       65.07056
C         66.11868      100.53082       63.26594
C         65.36032       99.65433       62.30967
O         64.01758       99.58604       62.36925
O         65.95514       99.04458       61.43592
H         66.08492       98.04297       64.52817
H         66.53805      100.91082       65.32559
H         67.19973      100.51493       63.00425
H         65.75645      101.57265       63.12956
N         63.95573       99.14968       65.92769
C         62.65542       99.24261       66.56710
C         61.44565       99.03244       65.67792
O         60.35810       99.20250       66.20865
H         64.51767       98.32061       66.16030
H         62.58210      100.22444       67.08413
H         62.58816       98.46650       67.36077
N         61.50554       98.60544       64.37485
C         60.26944       98.38219       63.60723
C         60.48587       97.57704       62.31643
O         61.61108       97.33742       61.91426
C         59.60998       99.75935       63.30836
C         58.21701       99.67931       62.74112
N         57.21267       99.12085       63.45743
O         57.98935      100.13429       61.63025
H         62.42074       98.38201       63.96554
H         59.60770       97.75197       64.24190
H         60.27479      100.31881       62.61345
H         59.52342      100.36214       64.23412
H         57.38468       98.74069       64.39961
H         56.25878       99.06973       63.07024
N         59.40220       97.09912       61.63370
C         59.45432       96.31983       60.40621
C         60.09903       94.97199       60.60961
O         59.76196       94.29215       61.56930
H         58.46196       97.28117       62.00498
H         59.94239       96.89597       59.59049
H         58.40648       96.12085       60.09110
N         60.98224       94.48123       59.69294
C         61.60561       93.16659       59.82835
C         62.57398       93.12774       60.99789
O         62.78189       94.13293       61.65934
C         62.29942       92.75043       58.50279
C         61.28836       92.31580       57.46273
C         60.50159       91.17152       57.70122
C         61.13385       93.00609       56.24988
C         59.57673       90.73120       56.75321
C         60.20270       92.56282       55.29995
C         59.42283       91.42614       55.54764
O         58.53479       91.00874       54.62222
H         61.17842       95.04328       58.85005
H         60.81997       92.41545       60.06014
H         62.95926       91.87062       58.64958
H         62.94792       93.58144       58.14764
H         60.61033       90.60982       58.62087
H         61.73080       93.88341       56.03770
H         58.98442       89.84711       56.95650
H         60.08855       93.10060       54.36742
H         57.98211       90.22480       54.75660
N         63.15942       91.94026       61.32566
C         64.02857       91.68132       62.46772
C         65.31104       92.49859       62.41595
O         65.26472       93.71624       62.51615
C         63.30215       91.88550       63.82671
C         64.18311       91.45318       65.03360
C         61.93861       91.17663       63.86347
C         64.54646       89.96801       65.09987
H         62.93898       91.11947       60.74125
H         64.28663       90.60379       62.40286
H         63.09736       92.96607       63.94741
H         63.65364       91.72286       65.97290
H         65.13931       92.00636       65.00926
H         62.04678       90.08427       63.70868
H         61.44139       91.36312       64.83915
H         61.27114       91.57439       63.07047
H         65.16765       89.79133       66.00338
H         63.63997       89.33608       65.17832
H         65.14504       89.65832       64.21998
N         66.50958       91.86419       62.30475
C         67.78931       92.57042       62.37841
C         69.01311       91.74813       61.95605
O         70.10101       92.30884       62.00529
C         68.00592       93.05331       63.82917
O         68.06851       91.94178       64.68514
H         66.46785       90.84830       62.21240
H         67.75459       93.44109       61.68743
H         67.17846       93.71366       64.15580
H         68.95123       93.64132       63.88645
H         68.57066       92.22679       65.49131
N         68.95815       90.44217       61.55359
C         70.15671       89.67179       61.25707
C         70.87114       90.19013       60.01310
O         70.24477       90.88631       59.22584
C         69.77160       88.20296       61.05509
H         68.07029       89.93794       61.49780
H         70.81381       89.74733       62.14844
H         70.65814       87.58069       60.88006
H         69.25864       87.81794       61.96208
H         69.08618       88.09940       60.18589
N         72.18385       89.91651       59.74214
C         73.10100       89.28398       60.68348
C         74.24909       88.59375       59.95487
O         74.92851       89.26580       59.19083
C         73.68210       90.36144       61.60761
H         72.58892       90.35299       58.89841
H         72.56399       88.57492       61.32837
H         74.37042       89.89850       62.34692
H         74.23997       91.12468       61.02360
H         72.87279       90.87743       62.16495
N         74.60278       87.28719       60.15955
C         73.92396       86.37073       61.07368
C         72.60595       85.84918       60.51239
O         71.90625       85.15210       61.23525
C         74.84644       85.19187       61.46384
C         75.16980       84.22109       60.31412
C         76.10922       83.14829       60.78411
O         75.73050       81.85655       60.75540
O         77.22417       83.44122       61.18693
H         75.45840       86.96286       59.68462
H         73.74565       86.90866       62.02988
H         74.35930       84.61146       62.27965
H         75.78946       85.61795       61.87281
H         75.64503       84.74929       59.46348
H         74.23017       83.75021       59.95262
N         72.20879       86.10842       59.23218
C         70.97838       85.57521       58.68514
H         70.10484       85.93966       59.26257
H         70.86203       85.89824       57.62877
H         70.99849       84.46530       58.71684
H         72.79466       86.68008       58.60800
Ca        64.32123       96.63879       62.02785
O         63.64029       97.26045       59.21300
H         62.84919       97.03662       58.66205
H         63.85844       98.19551       58.97145
O         67.35542       96.39213       62.36984
H         67.66902       97.30875       62.57227
H         68.17042       95.83355       62.42161
O         66.12869       95.25452       59.90424
H         66.26366       95.66731       59.01472
H         65.84700       94.32553       59.71010

Ca 1.0



