%chk=apoCaM-CA-Ng.loop1.water4.frame410.chk
%nprocshared=20
%mem=10GB
%nosave
#b3lyp/svp scf=(tight,noincore,xqc) Test 
#IOP(5/87=12) Density=Current Pop=(MK,readradii) iop(6/33=2) iop(6/42=6)

apoCaM-CA-Ng.loop1.water4.frame410 

   0  1 
C         83.59046       99.28908       73.38710
C         82.27896       98.58410       73.57462
O         82.15502       97.42456       73.20774
H         84.33263       98.62671       72.89484
H         83.44266      100.19536       72.76288
H         83.98868       99.59673       74.37805
N         81.24933       99.24001       74.17142
C         79.95462       98.62863       74.45918
C         79.09415       98.39989       73.20960
O         77.95696       98.00032       73.39411
C         79.16281       99.50347       75.46985
C         79.85554       99.63981       76.80502
O         80.93181      100.20769       76.89830
O         79.27117       99.15088       77.91623
H         81.42380      100.20630       74.48794
H         80.11207       97.65170       74.96692
H         78.18373       99.01684       75.67082
H         78.96443      100.51123       75.04578
N         79.51602       98.61283       71.92563
C         78.61515       98.50680       70.77250
C         78.97305       97.32785       69.86554
O         80.14970       97.21088       69.54904
C         78.68571       99.80106       69.92752
C         78.44883      101.12439       70.67759
C         77.12424      101.17310       71.45255
C         76.85805      102.54784       72.09328
N         76.50897      103.56501       71.09785
H         80.48849       98.89374       71.74106
H         77.57966       98.40046       71.11609
H         77.93810       99.72344       69.10942
H         79.68950       99.87733       69.45400
H         78.47591      101.92397       69.90914
H         79.28310      101.30540       71.38982
H         77.18940      100.42759       72.27204
H         76.26871      100.90679       70.79659
H         77.74181      102.87271       72.68658
H         76.00082      102.44682       72.79421
H         75.64502      103.27428       70.58381
H         76.31312      104.46756       71.58791
H         77.28655      103.72206       70.42011
N         78.06502       96.45190       69.30645
C         76.60685       96.42128       69.47961
C         75.95848       97.76496       69.14642
O         75.47738       98.43534       70.05074
C         76.20807       95.86699       70.86504
C         76.49865       94.40638       71.06597
O         76.14189       93.81914       72.22333
O         76.99961       93.73199       70.18312
H         78.44479       95.74997       68.65243
H         76.16368       95.68616       68.77261
H         75.10993       95.93208       70.95363
H         76.69245       96.43933       71.67242
N         75.84172       98.23519       67.87168
C         76.17502       97.44084       66.69604
C         75.84716       98.15109       65.38625
O         75.53318       99.32948       65.40185
H         75.40792       99.16199       67.75144
H         75.53720       96.53338       66.74162
H         77.24640       97.15065       66.70316
N         75.83779       97.49227       64.18651
C         76.10987       96.07035       64.01519
C         74.82278       95.32727       63.70517
O         73.78896       95.96160       63.51475
C         77.18949       95.85650       62.93113
C         76.77382       96.36002       61.57142
O         75.81228       95.87370       60.99715
O         77.47529       97.34151       60.97317
H         75.54513       98.02846       63.35253
H         76.50041       95.63196       64.95515
H         77.43685       94.77717       62.84646
H         78.11166       96.39076       63.24762
N         74.79856       93.96643       63.68250
C         73.59103       93.19865       63.41749
C         72.50131       93.34664       64.47213
O         71.43649       92.78748       64.25639
H         75.67611       93.44633       63.84350
H         73.85031       92.11967       63.35743
H         73.18902       93.50863       62.42855
N         72.66832       94.08513       65.60983
C         71.63400       94.28064       66.62666
C         71.98842       95.48861       67.49277
O         73.08191       95.55213       68.03721
C         71.36535       93.01708       67.49102
C         72.62597       92.41312       68.13337
O         70.65436       92.04773       66.75738
H         73.56176       94.57244       65.75555
H         70.67723       94.53223       66.11836
H         70.68859       93.32213       68.32043
H         71.29612       91.43424       66.31664
H         73.14584       93.14646       68.77925
H         72.33660       91.54266       68.76014
H         73.32817       92.06279       67.34724
N         71.08889       96.50876       67.61134
C         71.35034       97.79390       68.26318
C         71.02832       97.72796       69.76269
O         70.25645       98.54016       70.24878
C         70.55499       98.93013       67.50381
C         68.99466       98.78617       67.63385
C         70.98559       98.96215       66.02050
C         68.18447       99.83836       66.88308
H         70.20594       96.39734       67.09997
H         72.43521       98.02933       68.16001
H         70.84789       99.90808       67.94730
H         68.67912       98.88511       68.68566
H         68.63720       97.79951       67.28567
H         70.53445       99.82703       65.49285
H         72.08702       99.07076       65.93528
H         70.67763       98.03646       65.48934
H         67.10727       99.69381       67.11846
H         68.48345      100.86033       67.19409
H         68.30163       99.71888       65.78750
N         71.58796       96.78687       70.57496
C         71.15743       96.58902       71.96179
C         72.21752       96.95212       72.98527
O         71.91873       96.88486       74.16895
C         70.69257       95.12082       72.16189
C         71.82689       94.09079       71.98550
O         69.65676       94.83764       71.25767
H         72.30545       96.16173       70.19280
H         70.29008       97.24673       72.18799
H         70.30305       95.03578       73.20303
H         69.22700       93.99750       71.56723
H         71.44653       93.07113       72.20277
H         72.22763       94.08794       70.95260
H         72.65884       94.29215       72.68686
N         73.47765       97.31579       72.61614
C         74.57451       97.58453       73.54347
C         74.88700       96.35429       74.40980
O         74.14171       95.38535       74.38627
C         74.30869       98.87030       74.37178
C         73.99328      100.05878       73.45250
O         75.44593       99.18632       75.13174
H         73.69372       97.39119       71.61651
H         75.46910       97.79230       72.92539
H         73.44133       98.69713       75.04744
H         75.14614       99.75128       75.89046
H         73.84518      100.97980       74.05450
H         74.82812      100.22832       72.74520
H         73.06833       99.87681       72.86661
N         76.00214       96.31482       75.18773
C         76.33477       95.22014       76.09245
C         77.59878       94.47308       75.66745
O         77.97872       93.55407       76.37911
C         76.46299       95.81387       77.51315
C         75.08313       96.23237       78.05532
C         75.19371       97.01185       79.37077
C         73.80590       97.22483       79.99560
N         73.88618       98.07068       81.18598
H         76.65204       97.10888       75.16824
H         75.53742       94.44357       76.10991
H         77.15996       96.68133       77.47880
H         76.88023       95.06451       78.22035
H         74.48782       95.30481       78.21020
H         74.54485       96.87627       77.32566
H         75.67062       97.99396       79.15579
H         75.82589       96.45853       80.09830
H         73.38402       96.23273       80.27535
H         73.11942       97.70058       79.26068
H         74.55849       97.66784       81.87820
H         74.19217       99.03340       80.91439
H         72.93992       98.13114       81.62728
N         78.26865       94.74775       74.50544
C         79.43005       93.97454       74.06167
C         80.56368       94.07629       75.06419
O         81.02548       95.17295       75.34707
C         79.90284       94.44112       72.65726
C         81.19352       93.74471       72.16720
C         81.08521       92.24331       72.10150
O         81.74485       91.55650       72.86497
O         80.31414       91.63626       71.17918
H         77.92521       95.49837       73.89286
H         79.12502       92.90996       73.96122
H         80.10352       95.53418       72.68463
H         79.08902       94.26472       71.92609
H         82.01460       94.01553       72.86509
H         81.47789       94.13149       71.16562
N         81.09108       92.94392       75.60726
C         82.21795       92.96988       76.51168
H         83.09045       93.44397       76.01273
H         81.95748       93.53473       77.43022
H         82.49799       91.93182       76.79305
H         80.70101       92.02479       75.34876
Ca        79.43269       92.73109       69.41637
O         77.27095       90.78044       71.97918
H         76.41276       91.08904       72.36393
H         77.96282       91.20125       72.54799
O         75.80881       91.05113       68.92446
H         75.23613       90.56802       68.27720
H         75.36014       90.91995       69.79710
O         78.02385       89.45549       67.10062
H         77.82668       88.51089       67.32313
H         77.19323       89.78900       66.67757
O         78.81890       88.91028       70.09717
H         79.63617       89.06811       69.56089
H         79.10149       88.27165       70.79898

Ca 1.0



