%chk=apoCaM-CA-Ng.loop1.water3.frame25.chk
%nprocshared=20
%mem=10GB
%nosave
#b3lyp/svp scf=(tight,noincore,xqc) Test 
#IOP(5/87=12) Density=Current Pop=(MK,readradii) iop(6/33=2) iop(6/42=6)

apoCaM-CA-Ng.loop1.water3.frame25 

   0  1 
C         68.23950       41.38506       64.89138
C         67.18179       40.40938       64.47237
O         66.24084       40.79513       63.79390
H         69.22530       41.06082       64.49927
H         68.01122       42.40357       64.51307
H         68.28425       41.42116       66.00150
N         67.26309       39.11773       64.88915
C         66.24164       38.11391       64.61942
C         65.51139       37.74532       65.90358
O         64.73349       36.80142       65.87922
C         66.84575       36.88215       63.90305
C         67.82585       36.08834       64.72364
O         67.58481       34.92211       64.99341
O         68.99071       36.63284       65.12196
H         68.05775       38.85516       65.49070
H         65.46981       38.51265       63.92501
H         67.34390       37.20589       62.96422
H         66.00692       36.20861       63.61558
N         65.66168       38.48816       67.04515
C         64.97794       38.20788       68.29791
C         64.03807       39.36735       68.63347
O         64.52830       40.48846       68.67473
C         65.99352       38.10043       69.45769
C         67.19708       37.17147       69.25395
C         66.84838       35.70151       68.99659
C         68.08792       34.79016       69.12970
N         69.16684       35.13854       68.20295
H         66.26797       39.32062       67.03880
H         64.44889       37.24637       68.22772
H         65.44430       37.79275       70.37503
H         66.43065       39.10502       69.65163
H         67.79160       37.23424       70.19181
H         67.81989       37.55933       68.42003
H         66.38826       35.59397       67.99046
H         66.11299       35.36115       69.75726
H         67.77619       33.73872       68.94609
H         68.47435       34.85210       70.17143
H         68.83037       35.06607       67.22001
H         69.53093       36.09965       68.39089
H         69.95806       34.46817       68.33594
N         62.71249       39.24419       68.94836
C         61.91509       38.02585       68.97892
C         62.52373       36.94569       69.87277
O         62.78113       35.85135       69.38759
C         61.63792       37.52303       67.54793
C         60.81303       38.46408       66.72285
O         60.31141       39.61269       67.22123
O         60.53938       38.14890       65.57558
H         62.21683       40.10843       69.22134
H         60.92124       38.27536       69.41273
H         61.06548       36.57588       67.59685
H         62.58201       37.32474       67.01546
N         62.75731       37.12792       71.20101
C         62.47639       38.36863       71.90659
C         62.76244       38.27455       73.39562
O         63.15281       37.21748       73.87071
H         63.14424       36.32296       71.71575
H         61.40835       38.61450       71.77420
H         63.10579       39.17659       71.48119
N         62.61894       39.34111       74.23226
C         62.21051       40.67918       73.81628
C         60.79036       40.70962       73.25426
O         59.84818       40.36806       73.95515
C         62.37622       41.70241       74.97217
C         61.52250       41.45379       76.19226
O         60.62932       42.38200       76.58354
O         61.66105       40.44136       76.85947
H         62.87881       39.18758       75.21739
H         62.92091       41.01926       73.03083
H         62.13654       42.71336       74.57522
H         63.44188       41.71624       75.29092
N         60.57871       41.16518       71.98517
C         59.26843       41.36112       71.38035
C         58.50058       40.09496       71.04735
O         58.94330       38.99265       71.33241
H         61.39302       41.47625       71.43403
H         59.41744       41.89514       70.41656
H         58.65353       42.01530       72.03605
N         57.30508       40.22219       70.39950
C         56.44231       39.11056       69.98953
C         57.14874       38.19737       68.99395
O         57.90911       38.69370       68.17723
C         55.12495       39.67055       69.38966
C         54.08081       38.58101       69.14058
O         55.37522       40.34901       68.18275
H         56.98773       41.18334       70.19816
H         56.17375       38.53120       70.90070
H         54.66492       40.36228       70.13687
H         55.47850       41.31287       68.39516
H         53.85170       38.04963       70.08925
H         53.14317       39.04392       68.76543
H         54.43645       37.84894       68.38673
N         56.93131       36.84745       69.00388
C         57.66749       35.90218       68.16231
C         56.71763       35.19444       67.20582
O         55.79042       34.54981       67.67717
C         58.39601       34.85958       69.06835
C         59.22201       35.57910       70.16466
C         59.27382       33.92528       68.20852
C         59.95465       34.64761       71.12912
H         56.24376       36.46336       69.67053
H         58.43957       36.44037       67.56907
H         57.63150       34.23985       69.58824
H         58.54224       36.20007       70.78622
H         59.95145       36.24838       69.68812
H         58.66521       33.40238       67.44210
H         60.07047       34.49703       67.69104
H         59.74493       33.13584       68.82673
H         60.46134       35.25698       71.90777
H         59.23586       33.96254       71.62538
H         60.73576       34.05983       70.60710
N         56.90416       35.25213       65.84885
C         56.02844       34.56379       64.89450
C         56.75311       33.55632       64.00573
O         56.05655       32.86431       63.27735
C         55.29456       35.58875       63.99066
C         56.23337       36.33147       63.02589
O         54.61832       36.52695       64.78737
H         57.68685       35.81506       65.48520
H         55.25165       33.99506       65.45082
H         54.56477       35.04230       63.34372
H         53.67673       36.22351       64.86798
H         56.73581       35.62175       62.33476
H         55.64885       37.04302       62.40581
H         57.01392       36.89439       63.57295
N         58.11858       33.44929       63.95497
C         58.85057       32.60149       63.00727
C         58.61874       33.06712       61.57164
O         57.48176       33.13900       61.12744
C         58.53973       31.09494       63.17186
C         58.83504       30.62504       64.60044
O         59.34864       30.37251       62.27671
H         58.69282       34.02494       64.58564
H         59.93746       32.71451       63.22334
H         57.46966       30.90346       62.93642
H         58.93478       29.47735       62.16322
H         58.19118       31.16025       65.32921
H         58.63142       29.53698       64.68866
H         59.90118       30.80767       64.85595
N         59.67568       33.36972       60.76690
C         59.50407       33.85465       59.40352
C         59.00419       35.28782       59.42909
O         57.97002       35.58065       58.84618
C         60.85442       33.79702       58.63430
C         60.79018       34.33941       57.18860
C         59.93489       33.47811       56.24805
C         59.88156       34.09428       54.84202
N         59.11648       33.24818       53.92655
H         60.63162       33.22511       61.12670
H         58.79085       33.18938       58.86991
H         61.22937       32.75078       58.61476
H         61.60952       34.40280       59.17891
H         61.82529       34.36400       56.78284
H         60.41301       35.38487       57.19704
H         58.89610       33.39814       56.62855
H         60.37854       32.45985       56.19277
H         60.91228       34.22236       54.44283
H         59.40245       35.09758       54.90170
H         58.14552       33.10635       54.28841
H         59.06452       33.71414       52.99183
H         59.59113       32.32264       53.81621
N         59.77324       36.24453       60.02171
C         59.56173       37.67950       59.88774
C         60.70459       38.23122       59.03815
O         61.68463       37.53102       58.81515
C         59.50022       38.31256       61.30438
C         59.55893       39.85095       61.33396
C         59.57554       40.36434       62.74020
O         60.58529       40.89421       63.17862
O         58.50599       40.23074       63.54297
H         60.63089       35.94518       60.51110
H         58.61856       37.88747       59.33614
H         60.37548       37.94601       61.88670
H         58.57870       37.95387       61.81358
H         58.71399       40.30666       60.77841
H         60.51831       40.16793       60.87450
N         60.61825       39.47236       58.48298
C         61.66363       40.05284       57.66507
H         62.54497       39.38498       57.56273
H         61.26295       40.26202       56.65194
H         62.00163       41.00398       58.12611
H         59.76755       40.03480       58.62942
Ca        59.02383       40.61407       65.68904
O         56.03283       39.11720       65.36603
H         55.08924       39.36378       65.19691
H         56.40430       38.95353       64.46445
O         59.08963       43.67033       65.14043
H         58.19112       44.08568       65.15566
H         59.46857       43.93064       64.26360
O         56.08147       42.22079       65.08427
H         55.84109       42.98703       64.50518
H         55.22319       41.93619       65.48730

Ca 1.0



