%chk=apoCaM-CA-Ng.loop3.water3.frame773.chk
%nprocshared=20
%mem=10GB
%nosave
#b3lyp/svp scf=(tight,noincore,xqc) Test 
#IOP(5/87=12) Density=Current Pop=(MK,readradii) iop(6/33=2) iop(6/42=6)

apoCaM-CA-Ng.loop3.water3.frame773 

   0  1 
C         86.08806       69.94165        7.20389
C         86.81461       68.77907        7.80647
O         87.96766       68.57615        7.45705
H         85.06435       70.04169        7.61923
H         86.65146       70.87288        7.42929
H         86.02544       69.81392        6.10378
N         86.20766       67.97306        8.72633
C         86.90366       66.89465        9.42220
C         86.30427       65.54059        9.02867
O         85.20721       65.51533        8.48825
C         86.81808       67.21199       10.93977
C         87.74871       66.48030       11.86611
O         87.72631       66.77408       13.17882
O         88.56385       65.67872       11.45489
H         85.22129       68.15171        8.97205
H         87.96148       66.90308        9.12527
H         85.76807       67.08177       11.27671
H         87.07492       68.28128       11.08148
N         86.97489       64.37163        9.26204
C         86.42545       63.04328        8.99031
C         86.02051       62.35284       10.28419
O         85.20117       61.44617       10.21075
C         87.44300       62.15204        8.24233
C         87.60183       62.47360        6.75027
C         88.67118       61.55157        6.13220
C         88.65292       61.58328        4.59834
N         89.70285       60.72373        4.04688
H         87.90835       64.41140        9.68111
H         85.48569       63.12497        8.40027
H         87.09298       61.09623        8.28681
H         88.42288       62.20269        8.76519
H         87.88350       63.53582        6.58279
H         86.61893       62.28232        6.26579
H         88.48271       60.49878        6.43815
H         89.67136       61.85428        6.51504
H         88.79345       62.62162        4.22821
H         87.66212       61.21406        4.24844
H         89.61563       60.69684        3.00523
H         90.64394       61.10472        4.29797
H         89.61061       59.74844        4.41490
N         86.53081       62.71264       11.49660
C         86.08054       62.14613       12.76284
C         85.52042       63.22834       13.69120
O         85.10104       62.89238       14.78759
C         87.21192       61.30620       13.39311
C         88.50008       62.04754       13.62325
O         88.55080       63.08845       14.46822
O         89.52231       61.67962       13.06762
H         87.27232       63.42326       11.54410
H         85.24113       61.43497       12.59695
H         87.41903       60.45831       12.70191
H         86.86252       60.87304       14.35448
N         85.40948       64.53178       13.28996
C         84.77792       65.59757       14.05407
C         85.53561       66.12149       15.26456
O         85.08323       67.12193       15.79734
H         85.69365       64.78807       12.33681
H         83.74733       65.29913       14.34519
H         84.67952       66.47135       13.37263
N         86.65470       65.52410       15.77896
C         87.36960       66.05868       16.94384
C         88.87296       66.15323       16.68527
O         89.34883       65.67429       15.67591
C         87.12599       65.17047       18.18542
C         85.67775       65.13170       18.61800
N         84.73661       64.50344       17.87640
O         85.35571       65.65679       19.67309
H         86.98184       64.64417       15.37532
H         87.00933       67.08320       17.17955
H         87.70849       65.59583       19.03058
H         87.49209       64.13516       18.01306
H         84.98563       64.01710       17.00749
H         83.75430       64.47971       18.18706
N         89.68343       66.75279       17.60814
C         91.13938       66.81350       17.53095
C         91.65060       67.57626       16.33225
O         91.18754       68.68473       16.09981
H         89.24756       67.17345       18.44058
H         91.56776       65.78897       17.55982
H         91.50016       67.35202       18.43446
N         92.67253       67.07593       15.56806
C         93.23361       67.80836       14.43093
C         92.31103       67.68872       13.20081
O         90.96817       67.64180       13.55666
C         94.61829       67.25032       14.03638
C         95.65015       67.41277       15.12741
C         96.04890       68.69495       15.54470
C         96.24299       66.28548       15.72068
C         97.02225       68.84521       16.53736
C         97.21371       66.43825       16.71580
C         97.60829       67.71577       17.12646
O         98.55113       67.84516       18.08183
H         93.10748       66.18438       15.85177
H         93.34846       68.87601       14.72200
H         95.00077       67.77868       13.13548
H         94.50026       66.17675       13.76824
H         95.61495       69.57921       15.09519
H         95.95614       65.28752       15.41383
H         97.32289       69.83923       16.84435
H         97.66303       65.56164       17.16530
H         98.85746       68.71027       18.38950
N         92.60976       68.70508       12.16618
C         91.67678       68.83138       11.01671
C         91.55725       67.49773       10.28453
O         91.19482       66.51866       10.91493
C         90.27232       69.42794       11.40228
C         89.40845       69.76017       10.15993
C         90.37448       70.66282       12.32045
C         89.94180       70.87173        9.25034
H         92.79694       69.64087       12.59196
H         92.14919       69.56355       10.33127
H         89.68793       68.67065       11.95772
H         88.40087       70.07900       10.50463
H         89.28646       68.83809        9.56218
H         90.83387       70.39755       13.29480
H         90.97964       71.46675       11.85372
H         89.36116       71.05615       12.55048
H         90.92258       70.60699        8.81070
H         89.22784       71.02811        8.41485
H         90.02688       71.83100        9.80076
N         91.81439       67.37900        8.94820
C         91.75089       66.08796        8.25564
C         92.97093       65.78476        7.40051
O         93.02963       64.68101        6.87463
C         90.48654       66.00610        7.39698
O         90.48522       67.01188        6.42306
H         92.00259       68.23531        8.40654
H         91.68579       65.26643        8.99855
H         89.61695       66.12184        8.06402
H         90.42067       65.00525        6.91342
H         89.61603       66.92990        5.95125
N         93.96553       66.69218        7.17282
C         95.09348       66.38297        6.30015
C         95.96347       65.28730        6.89948
O         95.89782       65.09034        8.10540
C         95.93577       67.63834        6.07973
H         93.90874       67.63273        7.58455
H         94.67741       66.05549        5.32258
H         96.31940       68.02767        7.04604
H         96.79988       67.40676        5.44190
H         95.32264       68.42496        5.58898
N         96.79333       64.49351        6.15766
C         96.86862       64.47063        4.69905
C         98.25963       64.03935        4.24438
O         98.75367       63.04829        4.76470
C         95.85382       63.45437        4.16844
H         97.27778       63.73755        6.66745
H         96.58299       65.44312        4.26331
H         96.06481       62.43719        4.56147
H         94.82592       63.74606        4.47002
H         95.89218       63.42632        3.05735
N         98.94332       64.63887        3.22605
C         98.43876       65.74143        2.41952
C         98.48496       67.03769        3.20097
O         97.50647       67.77037        3.19376
C         99.23159       65.84844        1.09936
C         98.50010       66.73817        0.07881
C         99.19194       66.71618       -1.25296
O         98.61459       66.27888       -2.23650
O        100.44951       67.18069       -1.37170
H         99.84453       64.21392        2.95219
H         97.39901       65.49672        2.10667
H         99.28365       64.83000        0.65272
H        100.27051       66.20191        1.28223
H         98.43166       67.78398        0.44391
H         97.46565       66.34721       -0.05777
N         99.59193       67.36839        3.92532
C         99.66296       68.56311        4.73997
H         99.56425       69.46754        4.10565
H         98.85761       68.55502        5.50430
H        100.63735       68.60003        5.27328
H        100.40372       66.73227        3.93050
Ca        90.62547       65.38674       13.36169
O         93.09195       64.42855       11.91451
H         93.57989       63.70763       12.38540
H         93.53127       64.49391       11.02984
O         92.10642       63.29864       14.92924
H         92.29117       62.46909       14.42118
H         91.52283       63.00973       15.67493
O         90.46272       63.42914       10.42719
H         89.86198       62.69240       10.69919
H         91.07121       63.01811        9.76326

Ca 1.0



