%chk=apoCaM-CA-Ng.loop3.water5.frame446.chk
%nprocshared=20
%mem=10GB
%nosave
#b3lyp/svp scf=(tight,noincore,xqc) Test 
#IOP(5/87=12) Density=Current Pop=(MK,readradii) iop(6/33=2) iop(6/42=6)

apoCaM-CA-Ng.loop3.water5.frame446 

   0  1 
C         73.13217       51.25272       92.01885
C         72.74893       49.80503       92.04474
O         71.67932       49.46313       91.56261
H         74.08607       51.38484       91.46927
H         72.34094       51.86023       91.53181
H         73.25555       51.61320       93.06265
N         73.57705       48.89471       92.63107
C         73.24904       47.48429       92.81409
C         72.04421       47.37953       93.73616
O         71.02181       46.81011       93.37939
C         73.07713       46.74414       91.46549
C         74.31186       46.79051       90.59852
O         74.30418       46.22878       89.51525
O         75.42819       47.43270       90.99773
H         74.47464       49.22677       93.01713
H         74.09529       46.99202       93.34560
H         72.22645       47.16577       90.89282
H         72.85153       45.67563       91.67420
N         72.13132       47.94336       94.97382
C         71.06136       47.93942       95.97328
C         69.86502       48.79534       95.56931
O         68.86775       48.76437       96.27775
C         71.62468       48.47472       97.30826
C         72.68294       47.52033       97.88702
C         73.47439       48.18049       99.01787
C         74.47634       47.18765       99.62162
N         75.35165       47.84753      100.58821
H         73.03041       48.38765       95.21831
H         70.71004       46.89369       96.12009
H         70.82326       48.59774       98.06982
H         72.06706       49.47773       97.11086
H         73.41998       47.22778       97.10981
H         72.17200       46.59794       98.24087
H         72.79193       48.54925       99.81392
H         74.02701       49.04706       98.59044
H         75.10512       46.74489       98.81689
H         73.91603       46.36518      100.12013
H         75.98644       47.13481      101.01503
H         75.93524       48.56628      100.10047
H         74.78788       48.30178      101.34227
N         69.88863       49.60036       94.46992
C         68.75984       50.42441       94.05051
C         67.58355       49.52133       93.71910
O         67.79170       48.49337       93.09104
C         69.18992       51.30494       92.85578
C         68.24529       52.44409       92.58437
O         68.62533       53.59297       92.74795
O         66.99899       52.23323       92.13708
H         70.74917       49.65039       93.91429
H         68.50222       51.11875       94.88188
H         69.34746       50.69722       91.93917
H         70.16476       51.77107       93.12436
N         66.32891       49.80828       94.16162
C         65.19305       48.91603       93.97498
C         64.90065       48.56809       92.52746
O         64.44890       47.45722       92.28821
H         66.17264       50.68331       94.68339
H         64.28445       49.36714       94.42853
H         65.39213       47.97097       94.52658
N         65.10915       49.45726       91.51436
C         64.85660       49.14754       90.10640
C         66.13164       49.25337       89.25480
O         66.03957       49.26867       88.03549
C         63.63801       49.95229       89.59965
C         63.79603       51.44861       89.54038
N         63.50270       52.11589       88.40285
O         64.12755       52.07173       90.53442
H         65.46495       50.39097       91.74845
H         64.52485       48.09172       89.99891
H         62.79100       49.73561       90.28708
H         63.34682       49.56977       88.59699
H         63.15990       51.60787       87.57614
H         63.57515       53.14221       88.36197
N         67.36325       49.16624       89.84456
C         68.63565       49.02708       89.14542
C         69.28154       50.32909       88.71646
O         70.41805       50.28695       88.26996
H         67.40314       49.04202       90.85758
H         68.54621       48.30916       88.30154
H         69.35349       48.58022       89.86893
N         68.63484       51.51929       88.81590
C         69.23568       52.79719       88.44151
C         68.12775       53.80926       88.27560
O         67.34482       54.01051       89.19255
C         70.25039       53.29019       89.49809
C         70.62728       54.73895       89.24272
C         71.32802       55.11982       88.08560
C         70.20792       55.73322       90.14514
C         71.59104       56.47257       87.83348
C         70.46060       57.08141       89.88550
C         71.14825       57.45715       88.72471
O         71.37674       58.75765       88.45082
H         67.65522       51.51400       89.13232
H         69.75348       52.69833       87.46178
H         71.15164       52.64234       89.52587
H         69.76103       53.21919       90.48617
H         71.65373       54.37455       87.37152
H         69.65575       55.46982       91.03748
H         72.11881       56.75898       86.93259
H         70.10803       57.83280       90.58128
H         71.05930       59.46776       89.02761
N         68.01061       54.48240       87.10184
C         66.86227       55.31308       86.80608
C         65.75636       54.40971       86.30600
O         64.59863       54.71864       86.54641
C         67.21422       56.42815       85.77474
C         68.39416       57.28231       86.30711
C         65.98056       57.31275       85.48930
C         68.86196       58.37808       85.34810
H         68.68266       54.29068       86.34274
H         66.52764       55.82749       87.73527
H         67.53033       55.94783       84.82178
H         69.26300       56.61593       86.47079
H         68.12351       57.74707       87.28043
H         65.64364       57.82346       86.41654
H         66.19997       58.07249       84.71400
H         65.13824       56.71575       85.08991
H         69.74857       58.88786       85.78091
H         69.14641       57.93949       84.36846
H         68.07860       59.14795       85.19895
N         66.03022       53.28034       85.58045
C         64.97347       52.47099       84.99323
C         64.22031       53.25191       83.92532
O         63.14955       52.81385       83.53306
C         65.52602       51.15314       84.42686
O         66.44837       51.41036       83.40316
H         67.00857       52.99722       85.42073
H         64.26767       52.20830       85.80009
H         64.69046       50.53437       84.03136
H         66.02393       50.59899       85.25683
H         66.90084       50.54694       83.21611
N         64.72110       54.42560       83.42298
C         64.06343       55.28774       82.44967
C         62.81298       55.97799       82.98449
O         62.22264       56.73930       82.22902
C         63.78036       54.52751       81.14820
H         65.65392       54.74058       83.71942
H         64.77669       56.10485       82.19585
H         63.02308       53.73165       81.29167
H         63.39719       55.22757       80.37644
H         64.71874       54.07063       80.76815
N         62.34818       55.79978       84.25863
C         61.13633       56.45124       84.74806
C         61.26894       57.96815       84.77503
O         62.35995       58.48054       84.57259
C         60.77830       55.92719       86.14734
H         62.83926       55.16373       84.89602
H         60.30871       56.18139       84.05629
H         59.82638       56.36816       86.50969
H         60.64996       54.82397       86.11286
H         61.58406       56.16855       86.87414
N         60.15721       58.73002       85.01892
C         60.04279       60.19427       85.02172
C         61.24914       60.93045       84.45141
O         61.86660       61.73155       85.14125
C         59.66324       60.70419       86.43393
C         58.30042       60.17677       86.91182
C         57.93226       60.76743       88.24184
O         56.92484       61.44790       88.35392
O         58.70482       60.53926       89.32101
H         59.28145       58.21879       85.19772
H         59.21077       60.46954       84.33666
H         59.59001       61.81463       86.39620
H         60.45947       60.42758       87.16023
H         58.31730       59.07334       87.01971
H         57.52528       60.45042       86.16158
N         61.60257       60.72405       83.15072
C         62.69094       61.41724       82.49249
H         63.44330       60.67915       82.14542
H         62.29182       61.96441       81.61239
H         63.19268       62.15012       83.15842
H         61.06595       60.04521       82.58932
Ca        65.77397       54.07671       91.67385
O         64.36717       52.57808       93.70523
H         63.68278       51.88015       93.85694
H         64.77477       52.73218       94.59411
O         64.37549       55.68615       89.48094
H         64.29454       56.39328       90.16842
H         64.09749       56.13014       88.64195
O         65.34676       55.66324       94.22621
H         64.41259       55.43098       94.45762
H         65.30626       56.61619       93.96158
O         67.14407       56.75159       91.30864
H         66.90239       57.32349       92.07958
H         66.70338       57.17982       90.53258
O         62.73368       54.81111       91.93996
H         62.26976       55.60388       91.57033
H         62.27979       54.63658       92.80202

Ca 1.0



