%chk=apoCaM-CA-Ng.loop1.water5.frame629.chk
%nprocshared=20
%mem=10GB
%nosave
#b3lyp/svp scf=(tight,noincore,xqc) Test 
#IOP(5/87=12) Density=Current Pop=(MK,readradii) iop(6/33=2) iop(6/42=6)

apoCaM-CA-Ng.loop1.water5.frame629 

   0  1 
C        -15.07302       17.12692       10.99905
C        -16.45400       16.91817       11.55483
O        -17.38542       17.55305       11.08173
H        -14.32100       16.51531       11.54232
H        -15.05133       16.83564        9.92778
H        -14.78872       18.19560       11.09199
N        -16.66582       16.01148       12.54922
C        -17.98414       15.73743       13.11811
C        -18.46457       16.88133       14.01480
O        -17.77842       17.88794       14.13284
C        -17.98924       14.33878       13.78692
C        -17.00791       14.15768       14.91020
O        -17.14379       14.84372       16.05228
O        -16.10350       13.34487       14.80699
H        -15.86015       15.45618       12.87476
H        -18.71624       15.64001       12.28475
H        -17.74036       13.60227       12.99032
H        -19.00488       14.08199       14.15200
N        -19.67410       16.80018       14.64614
C        -20.28750       17.89667       15.40740
C        -19.47538       18.40461       16.61008
O        -19.87297       19.40066       17.19727
C        -21.75855       17.53022       15.74929
C        -21.98060       16.34680       16.71931
C        -23.46575       15.92540       16.67561
C        -23.81729       14.82397       17.68622
N        -25.20957       14.39490       17.52040
H        -20.22391       15.94136       14.50267
H        -20.35277       18.76157       14.71133
H        -22.23866       17.27621       14.77744
H        -22.28986       18.41864       16.15458
H        -21.68026       16.65184       17.74495
H        -21.37402       15.46420       16.42408
H        -23.68861       15.55044       15.65098
H        -24.11601       16.80388       16.87740
H        -23.67193       15.21736       18.71650
H        -23.15085       13.94476       17.54579
H        -25.33678       13.94866       16.58228
H        -25.44874       13.69317       18.25782
H        -25.85938       15.21007       17.60779
N        -18.32285       17.79969       17.01157
C        -17.42514       18.28585       18.05909
C        -15.96901       18.21523       17.58529
O        -15.60276       17.21124       16.99822
C        -17.67078       17.51893       19.37979
C        -18.00802       16.04478       19.27393
O        -19.13713       15.69537       19.58216
O        -17.14016       15.08382       18.89239
H        -18.05932       16.92308       16.56029
H        -17.65254       19.33848       18.31875
H        -18.58343       17.99133       19.81239
H        -16.85341       17.70906       20.10880
N        -15.04074       19.19776       17.81530
C        -15.28963       20.43190       18.54023
C        -16.14385       21.39774       17.75867
O        -16.47333       21.13581       16.60901
H        -14.06954       19.02925       17.50706
H        -14.32477       20.94727       18.74416
H        -15.75433       20.18997       19.52005
N        -16.56795       22.54628       18.35469
C        -17.45501       23.48750       17.68066
C        -16.77754       24.19183       16.51623
O        -15.56102       24.14328       16.39186
C        -18.04005       24.52617       18.66992
C        -17.01591       25.46231       19.26883
O        -16.01977       24.99420       20.04475
O        -17.10612       26.66447       19.07759
H        -16.31349       22.69622       19.34152
H        -18.31155       22.89611       17.28712
H        -18.56108       23.99269       19.49356
H        -18.80264       25.13255       18.13377
N        -17.53955       24.88056       15.62158
C        -17.00132       25.67963       14.53653
C        -17.37535       25.15832       13.16767
O        -17.13682       25.88326       12.21186
H        -18.56575       24.85920       15.72361
H        -15.89483       25.76372       14.58048
H        -17.41469       26.70469       14.65307
N        -17.89289       23.90657       12.96878
C        -18.19872       23.39305       11.63651
C        -17.12957       22.39596       11.23853
O        -17.00299       21.35334       11.86531
C        -19.60259       22.75396       11.57770
C        -20.70171       23.75154       11.95116
O        -19.83390       22.28114       10.27396
H        -18.00430       23.26777       13.77001
H        -18.18519       24.22495       10.89787
H        -19.62762       21.90482       12.30198
H        -20.47367       21.52545       10.34588
H        -20.55667       24.12382       12.98697
H        -20.69989       24.61273       11.24967
H        -21.69203       23.25081       11.89808
N        -16.28766       22.70038       10.21276
C        -15.19633       21.84806        9.75667
C        -13.86644       22.43766       10.20872
O        -12.98675       21.67272       10.58181
C        -15.27134       21.68080        8.21082
C        -16.65208       21.15090        7.73503
C        -14.13171       20.79398        7.67528
C        -17.04455       19.77551        8.28363
H        -16.40879       23.60900        9.74089
H        -15.26675       20.84137       10.22348
H        -15.14428       22.68564        7.74764
H        -16.65208       21.09887        6.62411
H        -17.44346       21.87504        8.02572
H        -14.16439       19.77947        8.12276
H        -14.20321       20.70517        6.57010
H        -13.14353       21.24330        7.90578
H        -18.03755       19.49073        7.87687
H        -16.31525       18.99735        7.98109
H        -17.12621       19.79757        9.38874
N        -13.67893       23.78640       10.28936
C        -12.46443       24.41776       10.79431
C        -11.96101       25.40162        9.74047
O        -12.56386       25.47260        8.67478
C        -12.79543       25.12833       12.13970
C        -13.50900       24.19052       13.12425
O        -11.61132       25.57540       12.74720
H        -14.44571       24.42154       10.02677
H        -11.67586       23.65939       10.99770
H        -13.47040       25.99061       11.92719
H        -11.86021       26.28942       13.38972
H        -12.88545       23.29631       13.33521
H        -13.69967       24.72545       14.07805
H        -14.49120       23.86549       12.72094
N        -10.90620       26.23549        9.97245
C        -10.50649       27.26713        9.02546
C         -9.02055       27.16530        8.73906
O         -8.65072       26.97722        7.58924
C        -10.94190       28.65815        9.56328
C        -10.81267       29.74132        8.48512
O        -10.21213       29.01173       10.71014
H        -10.41261       26.19744       10.87287
H        -11.05330       27.13250        8.06541
H        -12.02104       28.58473        9.83288
H        -10.59047       29.86245       11.05376
H        -11.17818       30.71275        8.88124
H         -9.75979       29.85633        8.15638
H        -11.44439       29.47534        7.60986
N         -8.11167       27.29604        9.74915
C         -6.67264       27.26900        9.55880
C         -6.09333       26.18179       10.43985
O         -6.24938       26.24807       11.65167
C         -6.13146       28.67474        9.89262
C         -4.62039       28.89462        9.71713
C         -4.12106       28.54570        8.30425
C         -2.66519       28.97581        8.05667
N         -2.53513       30.43039        7.92547
H         -8.44551       27.45082       10.71045
H         -6.43274       27.05638        8.49599
H         -6.40241       28.94189       10.93816
H         -6.65223       29.39389        9.22096
H         -4.05051       28.30019       10.46370
H         -4.44875       29.96931        9.93215
H         -4.76505       29.01218        7.52750
H         -4.17818       27.44230        8.19039
H         -2.32852       28.51516        7.10193
H         -2.00657       28.59714        8.86954
H         -1.53835       30.66639        7.71711
H         -3.12645       30.76890        7.13090
H         -2.81174       30.92262        8.80285
N         -5.43546       25.12553        9.88573
C         -4.90138       24.02290       10.67673
C         -5.96555       22.95915       10.94238
O         -6.23586       22.73450       12.11397
C         -3.59927       23.45872       10.06988
C         -2.50333       24.53771       10.02709
C         -1.21633       23.98954        9.48587
O         -0.10779       23.99309       10.25082
O         -1.16322       23.55204        8.34759
H         -5.30987       25.11193        8.86401
H         -4.59135       24.41568       11.67346
H         -3.76393       23.05686        9.05143
H         -3.24218       22.62335       10.71265
H         -2.32714       24.91785       11.05769
H         -2.82322       25.39016        9.39037
N         -6.64048       22.24744        9.98769
C         -6.50786       22.36390        8.55045
H         -5.76961       23.10705        8.22807
H         -6.21248       21.38028        8.12914
H         -7.48976       22.65230        8.11916
H         -7.33478       21.55568       10.31225
Ca       -14.94740       15.02890       18.36597
O        -12.79412       15.91394       16.21473
H        -12.12785       15.37295       16.70865
H        -12.25678       16.45306       15.58173
O        -16.03441       12.06762       18.26027
H        -16.63540       11.80305       17.51923
H        -15.56279       11.23335       18.50918
O        -13.22636       12.72153       16.72221
H        -12.36663       12.37512       17.07060
H        -13.24509       12.43344       15.77529
O        -13.16307       13.20479       19.88170
H        -12.31575       13.58237       19.53531
H        -13.30458       13.66427       20.74713
O        -13.74818       17.10386       19.97031
H        -13.18251       17.04390       19.15936
H        -13.56779       16.26220       20.45988

Ca 1.0



