%chk=apoCaM-CA-Ng.loop3.water7.frame1174.chk
%nprocshared=20
%mem=10GB
%nosave
#b3lyp/svp scf=(tight,noincore,xqc) Test 
#IOP(5/87=12) Density=Current Pop=(MK,readradii) iop(6/33=2) iop(6/42=6)

apoCaM-CA-Ng.loop3.water7.frame1174 

   0  1 
C         86.84568       46.05556       -7.26413
C         87.38232       45.85607       -8.64785
O         87.81355       46.81776       -9.26545
H         85.77916       45.74924       -7.23513
H         87.42533       45.43811       -6.54660
H         86.92175       47.12267       -6.96325
N         87.38373       44.61486       -9.20595
C         87.89458       44.35488      -10.54510
C         87.17903       45.17238      -11.61045
O         87.85215       45.68031      -12.49480
C         87.92473       42.84308      -10.88274
C         86.62528       42.08012      -10.85166
O         86.63241       40.89336      -11.13670
O         85.46409       42.65745      -10.50006
H         87.02092       43.82707       -8.64740
H         88.96203       44.66134      -10.56993
H         88.61690       42.34506      -10.16830
H         88.34684       42.72988      -11.89963
N         85.83216       45.38236      -11.57405
C         85.11863       46.13208      -12.60522
C         85.21264       45.40466      -13.92446
O         84.82126       44.24615      -13.98710
C         83.63499       46.29303      -12.24951
C         83.42868       47.21666      -11.04577
C         81.93326       47.38051      -10.78311
C         81.66587       48.35372       -9.63637
N         80.22689       48.48960       -9.42533
H         85.29718       45.00544      -10.78066
H         85.55963       47.14948      -12.70217
H         83.17947       45.29473      -12.05852
H         83.11545       46.75448      -13.11931
H         83.87190       48.21125      -11.27519
H         83.92617       46.80512      -10.14105
H         81.49532       46.38853      -10.53518
H         81.44041       47.77060      -11.70108
H         82.09949       49.35010       -9.88088
H         82.14680       47.97969       -8.70515
H         80.05866       49.13753       -8.63005
H         79.77282       48.88317      -10.28160
H         79.80639       47.56078       -9.19347
N         85.75402       46.02008      -15.01554
C         85.98100       45.31744      -16.27234
C         87.43123       44.87358      -16.37456
O         87.71790       44.00360      -17.18484
C         85.49403       46.13510      -17.49000
C         86.25978       47.40998      -17.75492
O         87.30860       47.77377      -16.99233
O         85.93887       48.11419      -18.69872
H         86.09682       46.98684      -14.91492
H         85.38614       44.37725      -16.26333
H         84.42144       46.38903      -17.34209
H         85.57426       45.50196      -18.40014
N         88.39675       45.39981      -15.56136
C         89.75205       44.89246      -15.49164
C         89.76866       43.65445      -14.61464
O         89.08801       42.70040      -14.96277
H         88.17646       46.19042      -14.94193
H         90.38681       45.68847      -15.06539
H         90.14778       44.69270      -16.50912
N         90.45900       43.56739      -13.43514
C         91.37736       44.57615      -12.90766
C         91.65831       44.30573      -11.42575
O         92.00171       43.17723      -11.10051
C         92.69506       44.50616      -13.70981
C         93.65479       45.59858      -13.31541
N         94.83831       45.30586      -12.72856
O         93.36017       46.76395      -13.53491
H         90.34008       42.69714      -12.89419
H         90.91994       45.57842      -12.99808
H         92.50221       44.60549      -14.79830
H         93.15371       43.50526      -13.54774
H         95.10460       44.33072      -12.52948
H         95.48741       46.06028      -12.46024
N         91.57226       45.26259      -10.45071
C         91.31895       46.67566      -10.70262
C         91.47654       47.49581       -9.43947
O         92.49812       47.34992       -8.78267
H         91.77327       44.96732       -9.48153
H         90.31671       46.82580      -11.15701
H         92.09087       47.04464      -11.40387
N         90.52012       48.39161       -9.04585
C         90.63598       49.19623       -7.82257
C         89.35471       49.99073       -7.55082
O         88.63493       50.31903       -8.48466
C         91.85290       50.15900       -7.90516
C         92.22671       50.78726       -6.58356
C         92.22307       52.18242       -6.42204
C         92.62956       49.97450       -5.50834
C         92.61361       52.75313       -5.20459
C         93.01456       50.54572       -4.29292
C         93.00860       51.93853       -4.13676
O         93.37686       52.50273       -2.96877
H         89.67969       48.47967       -9.63420
H         90.77066       48.46972       -6.99167
H         91.64507       50.93020       -8.67916
H         92.76389       49.62322       -8.23174
H         91.92466       52.82915       -7.23706
H         92.65494       48.89701       -5.61227
H         92.60629       53.82943       -5.08973
H         93.32153       49.90471       -3.47572
H         93.65125       51.97354       -2.20593
N         88.98623       50.29243       -6.27082
C         87.72737       50.96505       -5.93890
C         87.65934       52.37308       -6.51773
O         88.60161       53.13332       -6.33918
C         87.42931       50.95099       -4.39942
C         88.22707       51.95045       -3.51758
C         85.92963       51.21875       -4.16568
C         89.73616       51.77975       -3.55229
H         89.59342       49.96009       -5.50892
H         86.92292       50.34313       -6.39268
H         87.62021       49.91749       -4.03292
H         87.91011       51.81183       -2.46020
H         87.98101       52.99610       -3.80366
H         85.65173       52.24172       -4.49690
H         85.30952       50.48260       -4.72114
H         85.68036       51.11607       -3.08795
H         90.11312       51.99271       -4.56689
H         90.20548       52.50713       -2.85615
H         90.02376       50.75344       -3.24309
N         86.55714       52.78855       -7.20921
C         86.41734       54.13225       -7.78336
C         85.11516       54.29654       -8.56596
O         84.27060       53.41027       -8.54530
C         86.46394       55.22134       -6.68331
O         85.39140       55.05400       -5.79496
H         85.79428       52.10482       -7.32791
H         87.25875       54.28805       -8.49374
H         86.41544       56.22602       -7.16272
H         87.41160       55.19433       -6.11158
H         85.18421       55.95272       -5.42698
N         84.88729       55.44119       -9.27487
C         83.65541       55.74678       -9.99371
C         82.49860       55.88483       -9.01939
O         81.50787       55.17761       -9.13972
C         83.39358       54.72676      -11.11643
H         85.62737       56.15989       -9.30026
H         83.77584       56.73761      -10.48483
H         82.49396       55.02389      -11.69635
H         84.26164       54.69902      -11.80825
H         83.22169       53.70460      -10.72281
N         82.58203       56.80358       -8.00716
C         81.54091       57.05806       -7.01133
C         81.26065       55.87072       -6.09613
O         80.37096       55.98610       -5.26304
C         80.25192       57.54179       -7.69811
H         83.43467       57.38006       -7.94493
H         81.88426       57.88885       -6.35569
H         79.49425       57.83092       -6.93851
H         80.46893       58.43493       -8.32158
H         79.80387       56.75774       -8.34158
N         81.95469       54.69802       -6.18334
C         81.60367       53.52283       -5.39822
C         81.86286       53.71870       -3.91250
O         81.27194       53.00509       -3.11374
C         82.37358       52.29363       -5.93689
C         81.85766       50.94168       -5.42376
C         80.41060       50.74604       -5.78406
O         79.49704       50.51465       -4.82366
O         80.05165       50.82869       -6.94658
H         82.71293       54.60643       -6.86750
H         80.51607       53.36047       -5.56582
H         83.45665       52.40164       -5.70858
H         82.27002       52.27360       -7.04452
H         81.99120       50.85825       -4.32570
H         82.45614       50.13659       -5.90274
N         82.76249       54.63946       -3.46578
C         83.04332       54.82375       -2.05926
H         83.83087       55.59671       -1.93013
H         82.12552       55.15662       -1.53084
H         83.40663       53.87234       -1.61491
H         83.28560       55.21717       -4.13730
Ca        88.52205       49.60392      -17.50943
O         89.87671       52.34464      -17.30610
H         90.45850       52.08585      -16.54795
H         89.12540       52.83474      -16.88716
O         88.89490       50.18200      -14.57095
H         89.86303       50.26974      -14.75949
H         88.80505       49.29413      -14.14212
O         87.71030       51.57988      -19.71107
H         88.36930       51.19776      -20.34350
H         86.82968       51.35029      -20.10088
O         90.88584       50.11717      -19.47087
H         91.31587       49.37499      -19.96512
H         91.63899       50.61954      -19.07039
O         88.82386       47.61501      -19.84377
H         88.83440       46.62540      -19.86939
H         89.20408       47.89331      -20.71426
O         90.72377       47.64085      -16.94406
H         90.81328       46.96932      -17.66609
H         91.64564       47.96608      -16.78925
O         86.46255       51.56208      -16.69118
H         85.60612       51.41233      -17.16464
H         86.24549       51.43561      -15.73361

Ca 1.0



