%chk=apoCaM-CA-Ng.loop2.water3.frame81.chk
%nprocshared=20
%mem=10GB
%nosave
#b3lyp/svp scf=(tight,noincore,xqc) Test 
#IOP(5/87=12) Density=Current Pop=(MK,readradii) iop(6/33=2) iop(6/42=6)

apoCaM-CA-Ng.loop2.water3.frame81 

   -2  1 
C         38.80660       53.59251       45.82384
C         39.01912       52.39200       46.69790
O         40.11554       52.21406       47.20911
H         37.99525       54.22070       46.24834
H         39.73290       54.20238       45.75736
H         38.51875       53.26512       44.80292
N         37.99860       51.51078       46.90085
C         38.12676       50.33396       47.76481
C         36.99352       49.29941       47.64944
O         37.07512       48.32258       48.38128
C         38.30282       50.77860       49.24121
C         37.14152       51.58960       49.75057
O         37.34012       52.85369       50.17105
O         36.02140       51.10741       49.80181
H         37.11960       51.72234       46.41876
H         39.04165       49.77678       47.46232
H         39.22472       51.38686       49.34202
H         38.44085       49.88953       49.89404
N         35.94927       49.38089       46.76032
C         34.88360       48.38192       46.65212
C         35.37497       46.99800       46.22785
O         34.56439       46.08219       46.21755
C         34.08603       48.31165       47.96376
H         35.86754       50.16997       46.11398
H         34.16238       48.71508       45.87285
H         33.70045       49.32092       48.22120
H         33.21397       47.63351       47.84439
H         34.69892       47.93493       48.80644
N         36.67020       46.76153       45.85814
C         37.20427       45.44223       45.53106
C         37.14299       44.54891       46.74756
O         36.63499       43.43767       46.69762
C         36.57217       44.86226       44.24423
C         36.91485       45.77808       43.10755
O         35.96928       46.51723       42.50252
O         38.08669       45.95240       42.80793
H         37.34291       47.53899       45.82339
H         38.29514       45.55609       45.32909
H         35.47328       44.76711       44.35169
H         36.98675       43.85527       44.01986
N         37.73467       45.00367       47.88346
C         37.94322       44.23480       49.09119
C         39.43295       44.10370       49.36150
O         39.79284       43.65467       50.43954
H         38.13232       45.95640       47.87836
H         37.48598       43.22360       49.03901
H         37.46994       44.79202       49.92804
N         40.35631       44.46750       48.41750
C         41.79984       44.43862       48.61094
C         42.38871       45.81755       48.34051
O         41.65087       46.72476       47.97702
C         42.42079       43.35620       47.69422
C         42.25765       43.56389       46.19987
N         42.72535       42.62745       45.34349
O         41.71374       44.56272       45.75246
H         40.03409       44.77926       47.49298
H         42.04028       44.16242       49.66056
H         41.95042       42.38459       47.96023
H         43.50688       43.27150       47.90864
H         43.18625       41.77619       45.69668
H         42.62158       42.75008       44.32516
N         43.72440       46.04261       48.49200
C         44.35151       47.32529       48.20606
C         45.41683       47.19207       47.14461
O         45.66066       46.09733       46.65558
H         44.32792       45.27507       48.82258
H         44.81831       47.71417       49.13545
H         43.60978       48.07480       47.85539
N         46.09740       48.30136       46.74084
C         47.16520       48.27776       45.74398
C         46.79694       49.06389       44.48655
O         47.61086       49.09232       43.57282
C         48.49538       48.77713       46.37631
C         48.46890       50.23983       46.85197
O         48.88340       47.93093       47.43073
H         45.84559       49.20550       47.16780
H         47.34808       47.23534       45.40248
H         49.28829       48.70960       45.59971
H         48.24910       48.06672       48.18253
H         48.24490       50.91724       46.00703
H         47.71848       50.39683       47.65391
H         49.46468       50.51821       47.25719
N         45.59644       49.70468       44.35017
C         45.19739       50.44062       43.14797
C         43.93299       49.83800       42.54922
O         43.37204       48.91556       43.12877
C         45.04060       51.96122       43.46061
C         43.99709       52.22480       44.58126
C         46.41806       52.55285       43.80698
C         43.76324       53.70717       44.87320
H         44.91721       49.66525       45.12143
H         45.97502       50.34020       42.35838
H         44.70003       52.47417       42.53531
H         44.31459       51.74862       45.53238
H         43.02368       51.78482       44.27540
H         46.37083       53.65426       43.91574
H         46.80482       52.11765       44.74752
H         47.14085       52.34393       42.98891
H         42.97691       53.80649       45.65117
H         44.68087       54.18735       45.27065
H         43.43138       54.23649       43.95615
N         43.45165       50.28678       41.35097
C         42.26900       49.70359       40.71724
C         42.22715       49.89049       39.18770
O         41.20195       49.58186       38.59937
C         40.99396       50.27057       41.39539
C         39.74950       49.45131       41.12946
O         39.80633       48.38683       40.53276
O         38.56063       49.85669       41.60778
H         43.95511       51.05630       40.89127
H         42.29710       48.60360       40.88716
H         40.84999       51.32370       41.06986
H         41.11890       50.26914       42.49944
N         43.30533       50.30799       38.45547
C         43.26315       50.42904       36.99980
C         42.35423       51.57938       36.57722
O         42.66687       52.71043       36.92208
C         44.68370       50.69272       36.44853
C         44.68214       50.84724       34.94582
C         44.32461       49.77197       34.11486
C         45.02449       52.08042       34.36453
C         44.30637       49.93146       32.72600
C         45.00127       52.23639       32.97638
C         44.64236       51.16310       32.15742
H         44.20534       50.48212       38.91820
H         42.92176       49.45924       36.58281
H         45.36571       49.86150       36.73064
H         45.07640       51.61939       36.92403
H         44.05886       48.81277       34.54102
H         45.29795       52.92502       34.98496
H         44.02904       49.10076       32.09038
H         45.25873       53.19117       32.53660
H         44.62419       51.28653       31.08259
N         41.24241       51.40051       35.79615
C         40.44196       52.50064       35.27576
C         39.56014       53.16664       36.32408
O         38.82325       54.06835       35.94975
C         39.63112       51.83745       34.15521
C         39.39782       50.45202       34.71149
C         40.76602       50.12224       35.30320
H         41.08023       53.28440       34.80971
H         38.72723       52.39223       33.82349
H         40.29950       51.71087       33.27184
H         38.66518       50.55171       35.54267
H         39.01483       49.69966       33.98994
H         40.63143       49.36140       36.09942
H         41.47484       49.75558       34.52991
N         39.58958       52.81266       37.64284
C         38.77050       53.45728       38.66373
C         39.62576       54.20502       39.68187
O         39.05013       54.82618       40.56492
C         37.91890       52.39088       39.37473
C         36.99442       51.64073       38.40679
C         36.23975       50.55755       39.12017
O         35.41256       50.86225       40.13846
O         36.37151       49.39339       38.77691
H         40.21133       52.05626       37.95731
H         38.09002       54.20989       38.20809
H         37.30107       52.86866       40.16710
H         38.60753       51.66687       39.85278
H         37.59674       51.17773       37.59710
H         36.27279       52.35024       37.94915
N         40.99131       54.20969       39.62590
C         41.83078       54.92777       40.56348
H         42.46176       55.65188       40.00583
H         41.24360       55.48774       41.32046
H         42.49252       54.20824       41.09005
H         41.48410       53.68769       38.89281
Ca        36.92666       48.30828       41.54249
O         37.50150       45.70917       39.59795
H         36.80875       45.71830       38.89051
H         38.35829       45.63838       39.10670
O         35.43696       49.53815       43.62542
H         35.97874       50.33966       43.41482
H         34.53490       49.74370       43.27435
O         34.20712       47.51296       40.07072
H         33.56869       47.97017       40.67395
H         33.87479       47.71154       39.15943

Ca 1.0



