%chk=apoCaM-CA-Ng.loop1.water3.frame1146.chk
%nprocshared=20
%mem=10GB
%nosave
#b3lyp/svp scf=(tight,noincore,xqc) Test 
#IOP(5/87=12) Density=Current Pop=(MK,readradii) iop(6/33=2) iop(6/42=6)

apoCaM-CA-Ng.loop1.water3.frame1146 

   0  1 
C         82.91914       35.77248       94.49981
C         84.31988       36.28390       94.37617
O         84.77721       36.97204       95.27779
H         82.30812       36.16065       93.65853
H         82.92557       34.66369       94.47561
H         82.46366       36.10908       95.45650
N         85.06135       35.99132       93.26820
C         86.41938       36.48699       93.07461
C         86.47484       37.43558       91.89857
O         87.35242       37.32801       91.05156
C         87.43253       35.32258       92.99723
C         87.24843       34.37256       91.83686
O         88.07851       33.32021       91.71547
O         86.37294       34.53957       91.00214
H         84.62994       35.41777       92.52920
H         86.71375       37.10083       93.94210
H         87.35668       34.73860       93.93937
H         88.46033       35.74321       92.93993
N         85.55170       38.42941       91.80936
C         85.59466       39.45947       90.78694
C         86.83631       40.31410       90.96464
O         87.56608       40.43454       89.99088
C         84.27527       40.25966       90.72517
C         83.14617       39.32053       90.24392
C         81.80680       40.03551       90.04204
C         80.70146       39.07984       89.54327
N         80.96722       38.55274       88.20025
H         84.79306       38.45869       92.50776
H         85.67777       38.97576       89.78584
H         84.38760       41.07014       89.97127
H         84.02553       40.72384       91.70243
H         83.00371       38.49308       90.97204
H         83.46364       38.88596       89.27367
H         81.92320       40.87001       89.31688
H         81.48739       40.45939       91.01820
H         79.74425       39.64473       89.51447
H         80.57751       38.23650       90.25877
H         81.81350       37.94145       88.19058
H         80.15362       37.96980       87.89732
H         81.08577       39.33867       87.52045
N         87.24796       40.87220       92.14226
C         86.58778       40.82322       93.45112
C         87.35125       39.91096       94.40651
O         88.40824       39.40167       94.05775
C         86.41151       42.25743       94.01584
C         87.61173       43.12613       93.71574
O         88.85024       42.78343       94.12828
O         87.47949       44.06153       92.94367
H         88.17199       41.32911       92.10664
H         85.58245       40.37191       93.38064
H         86.16465       42.24320       95.10082
H         85.54199       42.71666       93.49489
N         86.78924       39.57172       95.60300
C         87.32350       38.54950       96.49326
C         88.62202       38.90419       97.16504
O         89.13975       39.99110       96.97934
H         85.87277       39.97533       95.85209
H         87.46342       37.60304       95.93633
H         86.58331       38.35935       97.30051
N         89.16516       37.99329       98.02666
C         90.37018       38.22293       98.82892
C         90.40926       37.24966      100.02730
O         89.75405       36.22032       99.97818
C         91.65372       38.03656       97.97839
C         91.79840       39.02951       96.86426
O         91.90880       40.34435       97.13856
O         91.84682       38.64672       95.70662
H         88.62432       37.12891       98.16894
H         90.29652       39.24928       99.22834
H         91.65738       37.00410       97.56520
H         92.56247       38.13866       98.59707
N         91.14718       37.47940      101.15941
C         91.93556       38.66985      101.41226
C         91.08777       39.91478      101.53476
O         89.87306       39.82963      101.65079
H         91.14319       36.75520      101.89574
H         92.68258       38.79492      100.60978
H         92.50753       38.55823      102.35930
N         91.69419       41.12614      101.47818
C         90.99837       42.40877      101.54517
C         89.93188       42.55548      100.45166
O         90.19707       42.26847       99.29371
C         92.04107       43.55189      101.47967
C         91.40442       44.93991      101.58865
O         92.78155       43.46411      100.28877
H         92.72176       41.12900      101.36823
H         90.50202       42.48883      102.53785
H         92.71683       43.41476      102.35984
H         93.71574       43.72418      100.50393
H         90.73715       45.13812      100.72357
H         90.81668       45.02001      102.52739
H         92.19987       45.71415      101.59959
N         88.71157       43.08071      100.77988
C         87.59604       43.34156       99.86694
C         88.04990       44.28370       98.70108
O         87.66574       43.71046       97.49577
C         86.88218       42.02296       99.38420
C         86.66730       40.98495      100.51180
C         85.51063       42.32767       98.71382
C         85.81423       41.46373      101.68815
H         88.56518       43.36155      101.76131
H         86.82433       43.87331      100.46730
H         87.53724       41.51619       98.64157
H         87.65204       40.67023      100.90334
H         86.18946       40.08069      100.07285
H         85.03273       41.38680       98.37116
H         84.82830       42.84356       99.41894
H         85.56127       42.97931       97.82405
H         86.29014       42.32764      102.19406
H         84.79203       41.74219      101.36344
H         85.72116       40.63852      102.42406
N         87.40657       45.60771       98.78582
C         87.56854       46.48967       97.59901
C         88.69440       47.52650       97.71768
O         88.95734       48.19932       96.73088
C         86.18926       47.14305       97.31851
C         86.09550       47.89949       95.98817
O         85.84301       48.01343       98.36747
H         87.39505       46.06645       99.72357
H         87.80952       45.87455       96.70556
H         85.44329       46.31406       97.23402
H         85.15582       47.55808       98.92068
H         86.35557       47.22745       95.14257
H         85.05401       48.25776       95.84111
H         86.75341       48.78998       95.96899
N         89.38495       47.74760       98.87326
C         90.37262       48.81905       99.00608
C         91.59640       48.54871       98.13790
O         92.30929       47.58999       98.39725
C         90.74980       48.99642      100.51385
C         91.89867       49.98599      100.71978
O         89.65548       49.45255      101.28318
H         89.16340       47.19515       99.71017
H         89.90329       49.77469       98.67944
H         91.08188       48.01645      100.92117
H         88.79916       49.26508      100.81930
H         92.82573       49.61903      100.23231
H         91.63566       50.98440      100.31312
H         92.11103       50.08180      101.80632
N         91.90267       49.38333       97.09519
C         93.09469       49.26063       96.25596
C         93.14816       47.90208       95.58646
O         93.99516       47.08443       95.92193
C         94.38200       49.59458       97.03838
C         94.36131       51.04077       97.56109
C         95.73294       51.44643       98.11091
C         95.71609       52.88868       98.63442
N         97.04766       53.29591       99.08203
H         91.25951       50.16040       96.88081
H         93.04671       50.01845       95.44105
H         95.23112       49.49731       96.32525
H         94.54893       48.88767       97.87930
H         93.58190       51.14260       98.34671
H         94.11240       51.73195       96.72516
H         96.48015       51.37075       97.28964
H         96.03153       50.75869       98.93125
H         94.99926       52.96435       99.48210
H         95.38023       53.57871       97.82801
H         97.38802       52.65649       99.83620
H         97.71543       53.27782       98.27666
H         97.00052       54.27068       99.45716
N         92.24917       47.60826       94.60865
C         92.13205       46.29469       93.98974
C         90.74316       45.74745       94.26389
O         90.69096       44.74681       94.95790
C         92.51986       46.27552       92.49231
C         94.03637       46.42795       92.29552
C         94.39988       46.33633       90.84015
O         93.98403       47.16668       90.04795
O         95.18954       45.33636       90.40233
H         91.59579       48.35188       94.33052
H         92.83744       45.58360       94.47636
H         91.99593       47.04995       91.90585
H         92.24038       45.28206       92.07544
H         94.55264       45.60584       92.84038
H         94.39176       47.39777       92.70259
N         89.56154       46.28090       93.82791
C         89.36350       47.44113       92.98469
H         88.73097       48.17695       93.52213
H         90.28496       47.95183       92.68694
H         88.83510       47.12697       92.05965
H         88.69718       45.80983       94.12801
Ca        89.30565       42.81559       96.30419
O         91.18738       41.19911       93.99740
H         91.99877       40.63557       93.94956
H         90.58232       40.81946       93.31186
O         93.73030       43.06070       95.79228
H         94.46563       43.60268       96.17401
H         92.92166       43.61401       95.92695
O         91.31990       44.57143       97.94858
H         92.29250       44.71873       98.05668
H         90.96249       45.45244       97.67684

Ca 1.0



