%chk=apoCaM-CA-Ng.loop1.water4.frame117.chk
%nprocshared=20
%mem=10GB
%nosave
#b3lyp/svp scf=(tight,noincore,xqc) Test 
#IOP(5/87=12) Density=Current Pop=(MK,readradii) iop(6/33=2) iop(6/42=6)

apoCaM-CA-Ng.loop1.water4.frame117 

   0  1 
C         60.42453       60.21284        7.16301
C         60.38578       58.84915        7.78836
O         61.21111       58.56967        8.64624
H         61.41019       60.36617        6.67573
H         59.63193       60.33108        6.39396
H         60.27803       60.98671        7.94462
N         59.44501       57.93938        7.40773
C         59.35507       56.60118        7.98762
C         60.55349       55.70314        7.66935
O         60.56576       54.59439        8.18145
C         58.01484       55.91054        7.61872
C         57.82656       55.62296        6.15570
O         57.67409       54.35279        5.73454
O         57.75890       56.53518        5.34892
H         58.73940       58.24066        6.72153
H         59.32863       56.72017        9.09101
H         57.16927       56.54713        7.95857
H         57.94640       54.95184        8.17786
N         61.60903       56.10221        6.89185
C         62.78444       55.26964        6.64777
C         64.00214       55.87745        7.33770
O         64.23353       57.05969        7.12376
C         63.11428       55.13654        5.14487
C         62.10351       54.35530        4.29329
C         60.84568       55.14657        3.92041
C         59.98500       54.32919        2.94253
N         58.84372       55.10131        2.45512
H         61.61834       57.04446        6.48060
H         62.60868       54.25644        7.01094
H         64.05638       54.54673        5.09153
H         63.32477       56.12593        4.68312
H         61.84686       53.39268        4.78700
H         62.62214       54.11808        3.33800
H         61.15930       56.08896        3.42036
H         60.25484       55.39941        4.82010
H         59.62555       53.40356        3.44548
H         60.60460       54.03297        2.06686
H         59.17499       55.97009        1.97587
H         58.30712       54.52176        1.77033
H         58.21058       55.35224        3.24283
N         64.89182       55.17884        8.11805
C         64.88000       53.75351        8.44793
C         64.83743       52.86490        7.19679
O         63.80969       52.24521        6.95639
C         63.74847       53.34916        9.42017
C         63.74501       53.95020       10.79075
O         62.87636       53.57409       11.56225
O         64.63652       54.86434       11.22497
H         65.70094       55.70834        8.48062
H         65.80878       53.52883        9.00600
H         63.84787       52.25483        9.58415
H         62.75457       53.53428        8.98535
N         65.89309       52.65256        6.36503
C         67.25392       53.11719        6.59336
C         68.22615       52.47785        5.60121
O         67.78525       51.92347        4.60342
H         65.70651       52.01890        5.57297
H         67.54623       52.75336        7.59668
H         67.32320       54.22511        6.57529
N         69.56838       52.39696        5.82630
C         70.26926       52.94749        6.98131
C         70.62396       51.83936        7.96016
O         70.35397       50.67917        7.67631
C         71.51688       53.74308        6.52373
C         72.59032       52.90277        5.86786
O         73.80666       52.80914        6.43773
O         72.38533       52.33309        4.80818
H         70.10712       51.82691        5.15895
H         69.60874       53.65236        7.52575
H         71.96533       54.23477        7.41194
H         71.20721       54.54581        5.82049
N         71.21361       52.12645        9.15839
C         71.54082       51.09003       10.12630
C         70.31312       50.39800       10.69301
O         70.46688       49.33073       11.26873
H         71.45243       53.10249        9.38800
H         72.11885       51.51598       10.97463
H         72.18885       50.34234        9.61937
N         69.07219       50.96010       10.60614
C         67.84690       50.31979       11.07577
C         66.87826       50.28454        9.91572
O         66.58196       51.34001        9.38790
C         67.23260       51.11576       12.24772
C         68.17657       51.16931       13.45148
O         66.03372       50.49522       12.64239
H         68.97874       51.89961       10.19127
H         68.04396       49.28476       11.43393
H         67.03905       52.16218       11.90554
H         65.36374       51.21081       12.79542
H         68.40017       50.14330       13.81450
H         69.12856       51.67356       13.18280
H         67.70091       51.74144       14.27587
N         66.35402       49.12096        9.44671
C         65.49040       49.06926        8.26515
C         64.07381       48.60441        8.59422
O         63.29146       48.43525        7.66975
C         66.17638       48.23541        7.13960
C         66.37111       46.74529        7.52078
C         67.51235       48.90541        6.75706
C         66.93734       45.89898        6.37633
H         66.59616       48.24097        9.92525
H         65.34898       50.08303        7.83387
H         65.51561       48.27988        6.24495
H         65.38460       46.31437        7.79403
H         67.05047       46.64673        8.39297
H         67.34000       49.96859        6.49637
H         68.23478       48.86208        7.59972
H         67.97256       48.42990        5.86890
H         67.96217       46.22100        6.10052
H         67.00023       44.83795        6.69609
H         66.27892       45.96373        5.48431
N         63.65294       48.41910        9.88021
C         62.30656       47.95941       10.22326
C         61.18200       48.88521        9.76310
O         60.08102       48.38549        9.58199
C         62.16403       47.70185       11.74885
C         62.32477       48.97151       12.60149
O         63.11806       46.75999       12.16545
H         64.32186       48.57600       10.64533
H         62.15764       46.98078        9.71293
H         61.14061       47.30788       11.95802
H         62.76842       45.86565       11.91340
H         62.19208       48.71934       13.67445
H         63.32851       49.42530       12.47670
H         61.56310       49.73133       12.33830
N         61.34676       50.24075        9.65670
C         60.26931       51.19141        9.34013
C         59.19632       51.19244       10.43645
O         59.26120       50.36567       11.33708
C         59.68436       50.91798        7.91532
C         60.76497       50.98639        6.82735
O         58.64409       51.80449        7.59133
H         62.27884       50.63251        9.84496
H         60.71090       52.21093        9.34288
H         59.24937       49.89948        7.88337
H         59.03699       52.70772        7.48069
H         61.21569       51.99993        6.79937
H         61.56302       50.24227        7.01448
H         60.31510       50.77235        5.83463
N         58.18129       52.10906       10.43595
C         57.10343       52.11158       11.42583
C         56.99083       53.41094       12.21868
O         56.19709       53.43423       13.14741
C         55.76198       51.75258       10.74532
C         55.34857       52.70234        9.60447
C         54.02522       52.24575        8.97624
C         53.65277       53.10983        7.76377
N         52.40252       52.64833        7.16000
H         58.15657       52.81766        9.69127
H         57.28900       51.32050       12.18502
H         54.95831       51.72575       11.51407
H         55.85936       50.72772       10.32395
H         56.12454       52.68731        8.81139
H         55.24367       53.74175        9.98530
H         53.21617       52.29794        9.73755
H         54.12801       51.19161        8.63650
H         54.46549       53.04880        7.00520
H         53.54311       54.17188        8.07597
H         52.18575       53.23856        6.32464
H         52.49651       51.65266        6.85254
H         51.61888       52.73162        7.84753
N         57.72149       54.52735       11.92366
C         57.61895       55.76919       12.68735
C         56.98245       56.83437       11.82018
O         57.52116       57.16314       10.77432
C         59.01588       56.22740       13.14423
C         59.64115       55.29910       14.19840
C         61.06288       55.71441       14.45949
O         61.32927       56.85931       14.78694
O         62.05087       54.82485       14.25485
H         58.35637       54.52411       11.11406
H         56.98476       55.64158       13.59140
H         58.94316       57.24401       13.59239
H         59.67448       56.29017       12.24972
H         59.64414       54.24977       13.83033
H         59.04595       55.34503       15.13542
N         55.81623       57.42413       12.20427
C         55.17197       58.44443       11.40704
H         54.24026       58.78285       11.90865
H         55.84870       59.31696       11.28737
H         54.91038       58.03572       10.40803
H         55.36705       57.14414       13.08891
Ca        64.05621       55.35115       13.35603
O         62.58236       57.15788       11.43207
H         61.94610       57.91513       11.40572
H         62.00915       56.35462       11.51096
O         64.98200       52.89778       14.83660
H         64.14071       52.40369       15.00571
H         65.44418       52.91331       15.71170
O         67.36293       54.91059       13.39733
H         68.06512       54.21292       13.39369
H         67.65470       55.55814       12.70747
O         64.02409       58.17411       15.06349
H         63.23009       58.74811       15.20729
H         64.38446       58.01834       15.97239

Ca 1.0



