%chk=apoCaM-CA-Ng.loop2.water2.frame888.chk
%nprocshared=20
%mem=10GB
%nosave
#b3lyp/svp scf=(tight,noincore,xqc) Test 
#IOP(5/87=12) Density=Current Pop=(MK,readradii) iop(6/33=2) iop(6/42=6)

apoCaM-CA-Ng.loop2.water2.frame888 

   -2  1 
C         13.51468       -1.55476       17.00769
C         13.02777       -0.31656       16.31827
O         11.86362        0.02970       16.46569
H         14.35563       -1.30411       17.68565
H         12.69782       -2.02173       17.59920
H         13.86020       -2.28682       16.24693
N         13.86720        0.39204       15.51091
C         13.41224        1.54752       14.74561
C         13.01486        2.71456       15.65107
O         12.29902        3.58799       15.18293
C         14.49151        1.96514       13.71952
C         14.02419        2.92084       12.64868
O         14.81697        3.29790       11.80109
O         12.74164        3.32521       12.57046
H         14.83378        0.05063       15.38947
H         12.51865        1.20330       14.17669
H         14.84032        1.05492       13.18375
H         15.35851        2.39997       14.26329
N         13.44929        2.81807       16.94688
C         13.00998        3.89968       17.83034
C         13.76933        3.89450       19.16271
O         13.86783        2.82400       19.74696
C         11.51532        3.74654       18.14666
H         14.11840        2.12186       17.30738
H         13.13957        4.84480       17.28582
H         11.32410        2.78473       18.66901
H         11.18206        4.58093       18.80053
H         10.89795        3.77625       17.22709
N         14.25698        5.01516       19.79180
C         14.14973        6.39848       19.32405
C         15.49221        7.11290       19.35115
O         16.44642        6.61260       19.93037
C         13.06381        7.16212       20.11781
C         13.29736        7.23816       21.60286
O         13.33171        6.22431       22.28097
O         13.39769        8.43677       22.20337
H         14.68433        4.87285       20.72037
H         13.82699        6.43665       18.27704
H         12.08590        6.65967       19.95587
H         12.97822        8.19439       19.71396
N         15.63979        8.27418       18.65259
C         16.89893        8.98679       18.51318
C         16.66421       10.47589       18.59304
O         16.78675       11.12677       17.56469
H         14.83892        8.61461       18.09701
H         17.27247        8.77043       17.48769
H         17.67760        8.64637       19.22718
N         16.28208       11.12287       19.72780
C         16.19946       10.52984       21.05698
C         17.60927       10.42257       21.62652
O         18.30885       11.42667       21.63697
C         15.29736       11.43487       21.92803
C         14.95585       10.89669       23.29333
N         14.10701       11.59426       24.08241
O         15.41107        9.83348       23.68465
H         16.07055       12.13067       19.63820
H         15.68906        9.54452       21.00321
H         14.32982       11.55307       21.39095
H         15.75768       12.44059       22.03899
H         13.70090       12.48362       23.75778
H         13.84032       11.24674       25.01221
N         18.09622        9.24460       22.11375
C         19.47559        9.06903       22.56126
C         19.62599        8.85700       24.05751
O         20.74437        8.61577       24.48858
H         17.47329        8.42577       22.14896
H         20.10003        9.95245       22.30542
H         19.90095        8.19989       22.01601
N         18.58041        9.00523       24.91843
C         18.70072        8.93435       26.37394
C         17.70192        7.94476       26.93267
O         16.52882        8.06539       26.62582
C         18.43867       10.33212       26.98679
C         19.55090       11.31856       26.63258
O         17.21442       10.85812       26.53907
H         17.65896        9.25227       24.53755
H         19.72165        8.62680       26.69159
H         18.44556       10.24936       28.10110
H         16.52664       10.60172       27.20314
H         19.34554       12.29899       27.11268
H         20.52694       10.94357       27.00872
H         19.61588       11.46624       25.53437
N         18.07966        6.95810       27.79556
C         17.10432        6.04536       28.39335
C         16.12904        6.86121       29.24297
O         16.55414        7.54532       30.16354
C         17.78389        4.90242       29.21118
C         16.69423        3.95588       29.79670
C         18.75264        4.10825       28.30467
C         17.24206        2.78799       30.62086
H         19.07523        6.88112       28.04851
H         16.55238        5.54298       27.56630
H         18.36786        5.34715       30.04763
H         16.07360        3.53932       28.97257
H         16.02736        4.53822       30.46768
H         18.19987        3.63014       27.46779
H         19.54306        4.75350       27.87485
H         19.29032        3.32710       28.87697
H         17.86306        3.16239       31.46120
H         16.39372        2.20263       31.03480
H         17.83935        2.09379       29.99565
N         14.79899        6.83764       28.94917
C         13.77412        7.64805       29.60136
C         12.74284        6.81386       30.36029
O         11.90191        7.42403       31.00653
C         13.01705        8.45319       28.51990
C         13.86364        9.46179       27.80385
O         14.26285       10.44566       28.40566
O         14.15238        9.32453       26.49114
H         14.50501        6.22477       28.18717
H         14.23841        8.33637       30.34284
H         12.16267        9.00930       28.96459
H         12.59879        7.73615       27.78274
N         12.70085        5.44640       30.31765
C         11.69562        4.66526       31.04593
C         11.73361        3.19315       30.62788
O         12.81232        2.61617       30.63980
C         11.88694        4.81145       32.58492
C         10.96949        3.90697       33.38755
C         11.29345        2.54631       33.54844
C          9.79263        4.39914       33.98082
C         10.45632        1.69407       34.26964
C          8.95150        3.53817       34.69835
C          9.28299        2.18756       34.84079
H         13.37870        4.94397       29.72858
H         10.70086        5.07744       30.79043
H         11.68513        5.86613       32.86550
H         12.93601        4.60117       32.88477
H         12.19957        2.14227       33.11806
H          9.51559        5.44029       33.87513
H         10.71833        0.64975       34.38135
H          8.03955        3.91527       35.14277
H          8.63278        1.52206       35.39400
N         10.58759        2.48435       30.33071
C         10.56347        1.03659       30.11667
C         11.26350        0.52529       28.86918
O         11.30809       -0.68293       28.68286
C          9.06999        0.70220       30.02347
C          8.45743        1.75559       30.91626
C          9.23433        2.99114       30.48414
H         11.00834        0.57032       31.02454
H          8.70410        0.91809       28.99203
H          8.81839       -0.34938       30.27709
H          7.35445        1.85609       30.83883
H          8.72507        1.51546       31.96964
H          8.87480        3.35337       29.49513
H          9.09990        3.76663       31.26315
N         11.79943        1.37550       27.95235
C         12.44487        0.93489       26.71162
C         13.69072        0.08208       26.93215
O         14.20630       -0.43337       25.94994
C         12.75759        2.17245       25.83880
C         13.77730        3.10788       26.50908
C         13.51578        4.53429       26.14566
O         12.87787        5.22209       26.92457
O         13.98032        5.10313       25.02284
H         11.68064        2.38441       28.11439
H         11.70407        0.31527       26.15919
H         11.78344        2.70153       25.73085
H         13.10364        1.91229       24.81486
H         14.83335        2.79480       26.35920
H         13.64669        3.07795       27.60999
N         14.22616       -0.12510       28.17243
C         15.36659       -0.98509       28.41647
H         16.18518       -0.39373       28.87588
H         15.06725       -1.79099       29.12024
H         15.74775       -1.46245       27.48970
H         13.82133        0.33374       28.99887
Ca        14.16012        7.32675       25.40375
O         11.22365        6.97453       25.03676
H         11.35003        7.79144       25.58195
H         10.24329        6.89684       24.92860
O         16.64812        6.25833       23.52196
H         16.66812        5.27558       23.40561
H         16.03304        6.57727       22.81496

Ca 1.0



