%chk=apoCaM-CA-Ng.loop2.water5.frame1173.chk
%nprocshared=20
%mem=10GB
%nosave
#b3lyp/svp scf=(tight,noincore,xqc) Test 
#IOP(5/87=12) Density=Current Pop=(MK,readradii) iop(6/33=2) iop(6/42=6)

apoCaM-CA-Ng.loop2.water5.frame1173 

   -2  1 
C        105.84742       36.91074       35.84724
C        105.03760       35.73870       35.35169
O        105.07857       35.50116       34.15347
H        106.90516       36.75821       35.54367
H        105.47500       37.84493       35.37964
H        105.85804       37.04449       36.94165
N        104.30148       34.91462       36.15495
C        104.09876       35.06719       37.59372
C        102.63102       34.79759       37.94145
O        101.80538       34.76355       37.03827
C        105.15935       34.22802       38.34874
C        104.98669       32.75355       38.18400
O        103.92161       32.15964       38.73903
O        105.80831       32.09042       37.57227
H        103.87027       34.08833       35.70845
H        104.27999       36.10822       37.91713
H        105.14753       34.45738       39.43476
H        106.15896       34.53216       37.96632
N        102.23285       34.62081       39.23501
C        100.85205       34.44735       39.69388
C        100.09376       33.21846       39.17732
O         98.97954       33.03013       39.64931
C        100.03373       35.71199       39.38767
H        102.95248       34.65153       39.97105
H        100.89321       34.34613       40.80193
H         99.91065       35.85564       38.29384
H         99.02060       35.63953       39.83898
H        100.53573       36.60609       39.81262
N        100.55685       32.36539       38.21281
C         99.69610       31.32147       37.65066
C         99.67232       30.07434       38.51050
O        100.43695       29.95157       39.45770
C        100.08492       30.97997       36.18353
C        101.48340       30.45200       36.06263
O        101.86637       29.35866       36.74650
O        102.31994       31.09315       35.44631
H        101.47623       32.51914       37.78714
H         98.65804       31.71835       37.59114
H         99.99071       31.90604       35.57478
H         99.38708       30.23088       35.75545
N         98.80563       29.08253       38.17819
C         98.75376       27.78008       38.80895
C         99.00342       26.73302       37.75427
O         99.93650       25.95486       37.89420
H         98.15096       29.25739       37.40288
H         97.74454       27.62523       39.24514
H         99.50342       27.68534       39.62616
N         98.20121       26.67491       36.64992
C         98.36545       25.70258       35.57787
C         98.67245       26.40203       34.25810
O         98.70948       27.62417       34.20234
C         97.06781       24.87853       35.44906
C         96.66128       24.26038       36.76436
N         95.47824       24.58561       37.33875
O         97.40654       23.46626       37.31839
H         97.42216       27.34463       36.56159
H         99.20994       25.01484       35.80418
H         97.19422       24.06990       34.69865
H         96.25526       25.54958       35.09304
H         94.83681       25.25533       36.88837
H         95.20021       24.17071       38.24010
N         98.90993       25.65984       33.14197
C         99.18719       26.21773       31.82774
C         97.98209       26.95248       31.26388
O         96.90637       26.37210       31.31215
H         98.90450       24.63181       33.22366
H         99.38514       25.36187       31.14635
H        100.10359       26.83919       31.86709
N         98.02188       28.20220       30.69662
C         99.22788       29.01303       30.44947
C         98.83487       30.48690       30.18283
O         97.65439       30.77630       30.05244
C        100.02842       28.41037       29.23374
C        101.44603       28.96008       29.04970
O        100.16601       27.01968       29.35532
H         97.10586       28.57832       30.40993
H         99.82818       29.01082       31.38374
H         99.46525       28.63288       28.29444
H         99.45412       26.59697       28.80520
H        101.46040       30.01944       28.74569
H        102.03817       28.80716       29.97876
H        101.94950       28.40866       28.22676
N         99.77148       31.48137       30.11773
C         99.45305       32.89264       29.87914
C        100.10647       33.35262       28.57261
O        101.31142       33.18360       28.45256
C         99.97613       33.75748       31.06627
C         99.41411       33.30269       32.43971
C         99.70420       35.25928       30.83678
C         97.89171       33.39881       32.58544
H        100.75884       31.24987       30.28209
H         98.36317       33.04542       29.82506
H        101.08126       33.63416       31.12405
H         99.87787       33.92595       33.23548
H         99.71701       32.25085       32.63045
H        100.20467       35.61853       29.91321
H         98.61927       35.46265       30.73565
H        100.10637       35.85703       31.68152
H         97.53870       34.44202       32.45751
H         97.37581       32.74482       31.85537
H         97.60259       33.06388       33.60340
N         99.43784       34.00887       27.56802
C         98.00931       34.33857       27.57523
C         97.64707       35.44579       26.58127
O         98.49005       35.87075       25.79994
C         97.16817       33.07514       27.26202
C         97.42156       32.55409       25.86902
O         98.64953       32.13165       25.51119
O         96.51064       32.50764       25.05746
H        100.01563       34.33981       26.77933
H         97.75123       34.75573       28.57071
H         96.08895       33.31545       27.36847
H         97.39256       32.26092       27.97365
N         96.38020       35.95942       26.56149
C         95.92618       36.91372       25.55396
C         94.72426       37.72761       26.05166
O         93.78400       37.10569       26.53311
C         95.48308       36.14164       24.29230
C         95.22057       37.11257       23.16800
C         93.91005       37.48772       22.82903
C         96.30318       37.69197       22.48240
C         93.68962       38.44045       21.82891
C         96.07720       38.63331       21.47499
C         94.77159       39.01178       21.15241
H         95.69112       35.58954       27.23477
H         96.76978       37.56257       25.26260
H         94.57047       35.55426       24.53937
H         96.25422       35.41451       23.95743
H         93.06368       37.06770       23.35784
H         97.32043       37.41827       22.73496
H         92.68000       38.74345       21.58442
H         96.91514       39.07690       20.95296
H         94.59914       39.75134       20.38147
N         94.60300       39.08720       25.89027
C         95.55550       39.96162       25.22074
C         96.86263       40.04566       25.95827
O         97.89789       39.74807       25.37667
C         94.84524       41.32568       25.15742
C         93.39011       40.90625       25.10319
C         93.37042       39.80123       26.15426
H         95.69358       39.60036       24.18516
H         94.96142       41.88401       26.11146
H         95.19011       41.98588       24.33264
H         92.66093       41.72511       25.28047
H         93.19208       40.45264       24.10510
H         93.42603       40.24046       27.17547
H         92.45516       39.17916       26.04970
N         96.88492       40.45514       27.25567
C         98.10397       40.54549       28.03160
C         98.53424       42.00330       28.05628
O         97.80926       42.79645       28.64158
C         97.85728       40.01768       29.46145
C         97.41271       38.54621       29.47858
C         97.12804       38.09885       30.88435
O         98.09827       38.13676       31.81771
O         96.01501       37.69977       31.18844
H         96.00473       40.75189       27.70495
H         98.87188       39.89061       27.59338
H         97.06391       40.63313       29.94372
H         98.79122       40.12478       30.05531
H         98.21050       37.90501       29.04676
H         96.49190       38.42151       28.86645
N         99.65353       42.48981       27.43802
C        100.59562       41.74872       26.61718
H        101.60830       41.82220       27.06261
H        100.36262       40.68357       26.47632
H        100.62003       42.20087       25.60315
H         99.84512       43.49951       27.52870
Ca       103.33958       30.06495       38.24774
O        105.90134       28.73540       37.93740
H        106.25789       27.82995       37.75780
H        106.67570       29.34035       37.81779
O        103.15038       27.03594       38.90794
H        103.11958       26.61252       39.80220
H        103.01496       26.28747       38.27444
O        105.52718       30.47182       40.67502
H        106.51234       30.37977       40.70653
H        105.29830       30.98687       41.48903
O        102.39995       31.55997       41.21527
H        102.75068       32.47512       41.35356
H        101.83293       31.38815       42.00809
O        103.06579       28.60833       41.72183
H        102.13585       28.31582       41.89557
H        103.45717       28.74319       42.62120

Ca 1.0



